data_image0
_chemical_formula_structural       Pt4000
_chemical_formula_sum              "Pt4000"
_cell_length_a       39.2316
_cell_length_b       39.2316
_cell_length_c       39.2316
_cell_angle_alpha    90
_cell_angle_beta     90
_cell_angle_gamma    90

_space_group_name_H-M_alt    "P 1"
_space_group_IT_number       1

loop_
  _space_group_symop_operation_xyz
  'x, y, z'

loop_
  _atom_site_type_symbol
  _atom_site_label
  _atom_site_symmetry_multiplicity
  _atom_site_fract_x
  _atom_site_fract_y
  _atom_site_fract_z
  _atom_site_occupancy
  Pt  Pt1       1.0  0.00000  0.00000  0.00000  1.0000
  Pt  Pt2       1.0  0.00000  0.05000  0.05000  1.0000
  Pt  Pt3       1.0  0.05000  0.00000  0.05000  1.0000
  Pt  Pt4       1.0  0.05000  0.05000  0.00000  1.0000
  Pt  Pt5       1.0  0.00000  0.00000  0.10000  1.0000
  Pt  Pt6       1.0  0.00000  0.05000  0.15000  1.0000
  Pt  Pt7       1.0  0.05000  0.00000  0.15000  1.0000
  Pt  Pt8       1.0  0.05000  0.05000  0.10000  1.0000
  Pt  Pt9       1.0  0.00000  0.00000  0.20000  1.0000
  Pt  Pt10      1.0  0.00000  0.05000  0.25000  1.0000
  Pt  Pt11      1.0  0.05000  0.00000  0.25000  1.0000
  Pt  Pt12      1.0  0.05000  0.05000  0.20000  1.0000
  Pt  Pt13      1.0  0.00000  0.00000  0.30000  1.0000
  Pt  Pt14      1.0  0.00000  0.05000  0.35000  1.0000
  Pt  Pt15      1.0  0.05000  0.00000  0.35000  1.0000
  Pt  Pt16      1.0  0.05000  0.05000  0.30000  1.0000
  Pt  Pt17      1.0  0.00000  0.00000  0.40000  1.0000
  Pt  Pt18      1.0  0.00000  0.05000  0.45000  1.0000
  Pt  Pt19      1.0  0.05000  0.00000  0.45000  1.0000
  Pt  Pt20      1.0  0.05000  0.05000  0.40000  1.0000
  Pt  Pt21      1.0  0.00000  0.00000  0.50000  1.0000
  Pt  Pt22      1.0  0.00000  0.05000  0.55000  1.0000
  Pt  Pt23      1.0  0.05000  0.00000  0.55000  1.0000
  Pt  Pt24      1.0  0.05000  0.05000  0.50000  1.0000
  Pt  Pt25      1.0  0.00000  0.00000  0.60000  1.0000
  Pt  Pt26      1.0  0.00000  0.05000  0.65000  1.0000
  Pt  Pt27      1.0  0.05000  0.00000  0.65000  1.0000
  Pt  Pt28      1.0  0.05000  0.05000  0.60000  1.0000
  Pt  Pt29      1.0  0.00000  0.00000  0.70000  1.0000
  Pt  Pt30      1.0  0.00000  0.05000  0.75000  1.0000
  Pt  Pt31      1.0  0.05000  0.00000  0.75000  1.0000
  Pt  Pt32      1.0  0.05000  0.05000  0.70000  1.0000
  Pt  Pt33      1.0  0.00000  0.00000  0.80000  1.0000
  Pt  Pt34      1.0  0.00000  0.05000  0.85000  1.0000
  Pt  Pt35      1.0  0.05000  0.00000  0.85000  1.0000
  Pt  Pt36      1.0  0.05000  0.05000  0.80000  1.0000
  Pt  Pt37      1.0  0.00000  0.00000  0.90000  1.0000
  Pt  Pt38      1.0  0.00000  0.05000  0.95000  1.0000
  Pt  Pt39      1.0  0.05000  0.00000  0.95000  1.0000
  Pt  Pt40      1.0  0.05000  0.05000  0.90000  1.0000
  Pt  Pt41      1.0  0.00000  0.10000  0.00000  1.0000
  Pt  Pt42      1.0  0.00000  0.15000  0.05000  1.0000
  Pt  Pt43      1.0  0.05000  0.10000  0.05000  1.0000
  Pt  Pt44      1.0  0.05000  0.15000  0.00000  1.0000
  Pt  Pt45      1.0  0.00000  0.10000  0.10000  1.0000
  Pt  Pt46      1.0  0.00000  0.15000  0.15000  1.0000
  Pt  Pt47      1.0  0.05000  0.10000  0.15000  1.0000
  Pt  Pt48      1.0  0.05000  0.15000  0.10000  1.0000
  Pt  Pt49      1.0  0.00000  0.10000  0.20000  1.0000
  Pt  Pt50      1.0  0.00000  0.15000  0.25000  1.0000
  Pt  Pt51      1.0  0.05000  0.10000  0.25000  1.0000
  Pt  Pt52      1.0  0.05000  0.15000  0.20000  1.0000
  Pt  Pt53      1.0  0.00000  0.10000  0.30000  1.0000
  Pt  Pt54      1.0  0.00000  0.15000  0.35000  1.0000
  Pt  Pt55      1.0  0.05000  0.10000  0.35000  1.0000
  Pt  Pt56      1.0  0.05000  0.15000  0.30000  1.0000
  Pt  Pt57      1.0  0.00000  0.10000  0.40000  1.0000
  Pt  Pt58      1.0  0.00000  0.15000  0.45000  1.0000
  Pt  Pt59      1.0  0.05000  0.10000  0.45000  1.0000
  Pt  Pt60      1.0  0.05000  0.15000  0.40000  1.0000
  Pt  Pt61      1.0  0.00000  0.10000  0.50000  1.0000
  Pt  Pt62      1.0  0.00000  0.15000  0.55000  1.0000
  Pt  Pt63      1.0  0.05000  0.10000  0.55000  1.0000
  Pt  Pt64      1.0  0.05000  0.15000  0.50000  1.0000
  Pt  Pt65      1.0  0.00000  0.10000  0.60000  1.0000
  Pt  Pt66      1.0  0.00000  0.15000  0.65000  1.0000
  Pt  Pt67      1.0  0.05000  0.10000  0.65000  1.0000
  Pt  Pt68      1.0  0.05000  0.15000  0.60000  1.0000
  Pt  Pt69      1.0  0.00000  0.10000  0.70000  1.0000
  Pt  Pt70      1.0  0.00000  0.15000  0.75000  1.0000
  Pt  Pt71      1.0  0.05000  0.10000  0.75000  1.0000
  Pt  Pt72      1.0  0.05000  0.15000  0.70000  1.0000
  Pt  Pt73      1.0  0.00000  0.10000  0.80000  1.0000
  Pt  Pt74      1.0  0.00000  0.15000  0.85000  1.0000
  Pt  Pt75      1.0  0.05000  0.10000  0.85000  1.0000
  Pt  Pt76      1.0  0.05000  0.15000  0.80000  1.0000
  Pt  Pt77      1.0  0.00000  0.10000  0.90000  1.0000
  Pt  Pt78      1.0  0.00000  0.15000  0.95000  1.0000
  Pt  Pt79      1.0  0.05000  0.10000  0.95000  1.0000
  Pt  Pt80      1.0  0.05000  0.15000  0.90000  1.0000
  Pt  Pt81      1.0  0.00000  0.20000  0.00000  1.0000
  Pt  Pt82      1.0  0.00000  0.25000  0.05000  1.0000
  Pt  Pt83      1.0  0.05000  0.20000  0.05000  1.0000
  Pt  Pt84      1.0  0.05000  0.25000  0.00000  1.0000
  Pt  Pt85      1.0  0.00000  0.20000  0.10000  1.0000
  Pt  Pt86      1.0  0.00000  0.25000  0.15000  1.0000
  Pt  Pt87      1.0  0.05000  0.20000  0.15000  1.0000
  Pt  Pt88      1.0  0.05000  0.25000  0.10000  1.0000
  Pt  Pt89      1.0  0.00000  0.20000  0.20000  1.0000
  Pt  Pt90      1.0  0.00000  0.25000  0.25000  1.0000
  Pt  Pt91      1.0  0.05000  0.20000  0.25000  1.0000
  Pt  Pt92      1.0  0.05000  0.25000  0.20000  1.0000
  Pt  Pt93      1.0  0.00000  0.20000  0.30000  1.0000
  Pt  Pt94      1.0  0.00000  0.25000  0.35000  1.0000
  Pt  Pt95      1.0  0.05000  0.20000  0.35000  1.0000
  Pt  Pt96      1.0  0.05000  0.25000  0.30000  1.0000
  Pt  Pt97      1.0  0.00000  0.20000  0.40000  1.0000
  Pt  Pt98      1.0  0.00000  0.25000  0.45000  1.0000
  Pt  Pt99      1.0  0.05000  0.20000  0.45000  1.0000
  Pt  Pt100     1.0  0.05000  0.25000  0.40000  1.0000
  Pt  Pt101     1.0  0.00000  0.20000  0.50000  1.0000
  Pt  Pt102     1.0  0.00000  0.25000  0.55000  1.0000
  Pt  Pt103     1.0  0.05000  0.20000  0.55000  1.0000
  Pt  Pt104     1.0  0.05000  0.25000  0.50000  1.0000
  Pt  Pt105     1.0  0.00000  0.20000  0.60000  1.0000
  Pt  Pt106     1.0  0.00000  0.25000  0.65000  1.0000
  Pt  Pt107     1.0  0.05000  0.20000  0.65000  1.0000
  Pt  Pt108     1.0  0.05000  0.25000  0.60000  1.0000
  Pt  Pt109     1.0  0.00000  0.20000  0.70000  1.0000
  Pt  Pt110     1.0  0.00000  0.25000  0.75000  1.0000
  Pt  Pt111     1.0  0.05000  0.20000  0.75000  1.0000
  Pt  Pt112     1.0  0.05000  0.25000  0.70000  1.0000
  Pt  Pt113     1.0  0.00000  0.20000  0.80000  1.0000
  Pt  Pt114     1.0  0.00000  0.25000  0.85000  1.0000
  Pt  Pt115     1.0  0.05000  0.20000  0.85000  1.0000
  Pt  Pt116     1.0  0.05000  0.25000  0.80000  1.0000
  Pt  Pt117     1.0  0.00000  0.20000  0.90000  1.0000
  Pt  Pt118     1.0  0.00000  0.25000  0.95000  1.0000
  Pt  Pt119     1.0  0.05000  0.20000  0.95000  1.0000
  Pt  Pt120     1.0  0.05000  0.25000  0.90000  1.0000
  Pt  Pt121     1.0  0.00000  0.30000  0.00000  1.0000
  Pt  Pt122     1.0  0.00000  0.35000  0.05000  1.0000
  Pt  Pt123     1.0  0.05000  0.30000  0.05000  1.0000
  Pt  Pt124     1.0  0.05000  0.35000  0.00000  1.0000
  Pt  Pt125     1.0  0.00000  0.30000  0.10000  1.0000
  Pt  Pt126     1.0  0.00000  0.35000  0.15000  1.0000
  Pt  Pt127     1.0  0.05000  0.30000  0.15000  1.0000
  Pt  Pt128     1.0  0.05000  0.35000  0.10000  1.0000
  Pt  Pt129     1.0  0.00000  0.30000  0.20000  1.0000
  Pt  Pt130     1.0  0.00000  0.35000  0.25000  1.0000
  Pt  Pt131     1.0  0.05000  0.30000  0.25000  1.0000
  Pt  Pt132     1.0  0.05000  0.35000  0.20000  1.0000
  Pt  Pt133     1.0  0.00000  0.30000  0.30000  1.0000
  Pt  Pt134     1.0  0.00000  0.35000  0.35000  1.0000
  Pt  Pt135     1.0  0.05000  0.30000  0.35000  1.0000
  Pt  Pt136     1.0  0.05000  0.35000  0.30000  1.0000
  Pt  Pt137     1.0  0.00000  0.30000  0.40000  1.0000
  Pt  Pt138     1.0  0.00000  0.35000  0.45000  1.0000
  Pt  Pt139     1.0  0.05000  0.30000  0.45000  1.0000
  Pt  Pt140     1.0  0.05000  0.35000  0.40000  1.0000
  Pt  Pt141     1.0  0.00000  0.30000  0.50000  1.0000
  Pt  Pt142     1.0  0.00000  0.35000  0.55000  1.0000
  Pt  Pt143     1.0  0.05000  0.30000  0.55000  1.0000
  Pt  Pt144     1.0  0.05000  0.35000  0.50000  1.0000
  Pt  Pt145     1.0  0.00000  0.30000  0.60000  1.0000
  Pt  Pt146     1.0  0.00000  0.35000  0.65000  1.0000
  Pt  Pt147     1.0  0.05000  0.30000  0.65000  1.0000
  Pt  Pt148     1.0  0.05000  0.35000  0.60000  1.0000
  Pt  Pt149     1.0  0.00000  0.30000  0.70000  1.0000
  Pt  Pt150     1.0  0.00000  0.35000  0.75000  1.0000
  Pt  Pt151     1.0  0.05000  0.30000  0.75000  1.0000
  Pt  Pt152     1.0  0.05000  0.35000  0.70000  1.0000
  Pt  Pt153     1.0  0.00000  0.30000  0.80000  1.0000
  Pt  Pt154     1.0  0.00000  0.35000  0.85000  1.0000
  Pt  Pt155     1.0  0.05000  0.30000  0.85000  1.0000
  Pt  Pt156     1.0  0.05000  0.35000  0.80000  1.0000
  Pt  Pt157     1.0  0.00000  0.30000  0.90000  1.0000
  Pt  Pt158     1.0  0.00000  0.35000  0.95000  1.0000
  Pt  Pt159     1.0  0.05000  0.30000  0.95000  1.0000
  Pt  Pt160     1.0  0.05000  0.35000  0.90000  1.0000
  Pt  Pt161     1.0  0.00000  0.40000  0.00000  1.0000
  Pt  Pt162     1.0  0.00000  0.45000  0.05000  1.0000
  Pt  Pt163     1.0  0.05000  0.40000  0.05000  1.0000
  Pt  Pt164     1.0  0.05000  0.45000  0.00000  1.0000
  Pt  Pt165     1.0  0.00000  0.40000  0.10000  1.0000
  Pt  Pt166     1.0  0.00000  0.45000  0.15000  1.0000
  Pt  Pt167     1.0  0.05000  0.40000  0.15000  1.0000
  Pt  Pt168     1.0  0.05000  0.45000  0.10000  1.0000
  Pt  Pt169     1.0  0.00000  0.40000  0.20000  1.0000
  Pt  Pt170     1.0  0.00000  0.45000  0.25000  1.0000
  Pt  Pt171     1.0  0.05000  0.40000  0.25000  1.0000
  Pt  Pt172     1.0  0.05000  0.45000  0.20000  1.0000
  Pt  Pt173     1.0  0.00000  0.40000  0.30000  1.0000
  Pt  Pt174     1.0  0.00000  0.45000  0.35000  1.0000
  Pt  Pt175     1.0  0.05000  0.40000  0.35000  1.0000
  Pt  Pt176     1.0  0.05000  0.45000  0.30000  1.0000
  Pt  Pt177     1.0  0.00000  0.40000  0.40000  1.0000
  Pt  Pt178     1.0  0.00000  0.45000  0.45000  1.0000
  Pt  Pt179     1.0  0.05000  0.40000  0.45000  1.0000
  Pt  Pt180     1.0  0.05000  0.45000  0.40000  1.0000
  Pt  Pt181     1.0  0.00000  0.40000  0.50000  1.0000
  Pt  Pt182     1.0  0.00000  0.45000  0.55000  1.0000
  Pt  Pt183     1.0  0.05000  0.40000  0.55000  1.0000
  Pt  Pt184     1.0  0.05000  0.45000  0.50000  1.0000
  Pt  Pt185     1.0  0.00000  0.40000  0.60000  1.0000
  Pt  Pt186     1.0  0.00000  0.45000  0.65000  1.0000
  Pt  Pt187     1.0  0.05000  0.40000  0.65000  1.0000
  Pt  Pt188     1.0  0.05000  0.45000  0.60000  1.0000
  Pt  Pt189     1.0  0.00000  0.40000  0.70000  1.0000
  Pt  Pt190     1.0  0.00000  0.45000  0.75000  1.0000
  Pt  Pt191     1.0  0.05000  0.40000  0.75000  1.0000
  Pt  Pt192     1.0  0.05000  0.45000  0.70000  1.0000
  Pt  Pt193     1.0  0.00000  0.40000  0.80000  1.0000
  Pt  Pt194     1.0  0.00000  0.45000  0.85000  1.0000
  Pt  Pt195     1.0  0.05000  0.40000  0.85000  1.0000
  Pt  Pt196     1.0  0.05000  0.45000  0.80000  1.0000
  Pt  Pt197     1.0  0.00000  0.40000  0.90000  1.0000
  Pt  Pt198     1.0  0.00000  0.45000  0.95000  1.0000
  Pt  Pt199     1.0  0.05000  0.40000  0.95000  1.0000
  Pt  Pt200     1.0  0.05000  0.45000  0.90000  1.0000
  Pt  Pt201     1.0  0.00000  0.50000  0.00000  1.0000
  Pt  Pt202     1.0  0.00000  0.55000  0.05000  1.0000
  Pt  Pt203     1.0  0.05000  0.50000  0.05000  1.0000
  Pt  Pt204     1.0  0.05000  0.55000  0.00000  1.0000
  Pt  Pt205     1.0  0.00000  0.50000  0.10000  1.0000
  Pt  Pt206     1.0  0.00000  0.55000  0.15000  1.0000
  Pt  Pt207     1.0  0.05000  0.50000  0.15000  1.0000
  Pt  Pt208     1.0  0.05000  0.55000  0.10000  1.0000
  Pt  Pt209     1.0  0.00000  0.50000  0.20000  1.0000
  Pt  Pt210     1.0  0.00000  0.55000  0.25000  1.0000
  Pt  Pt211     1.0  0.05000  0.50000  0.25000  1.0000
  Pt  Pt212     1.0  0.05000  0.55000  0.20000  1.0000
  Pt  Pt213     1.0  0.00000  0.50000  0.30000  1.0000
  Pt  Pt214     1.0  0.00000  0.55000  0.35000  1.0000
  Pt  Pt215     1.0  0.05000  0.50000  0.35000  1.0000
  Pt  Pt216     1.0  0.05000  0.55000  0.30000  1.0000
  Pt  Pt217     1.0  0.00000  0.50000  0.40000  1.0000
  Pt  Pt218     1.0  0.00000  0.55000  0.45000  1.0000
  Pt  Pt219     1.0  0.05000  0.50000  0.45000  1.0000
  Pt  Pt220     1.0  0.05000  0.55000  0.40000  1.0000
  Pt  Pt221     1.0  0.00000  0.50000  0.50000  1.0000
  Pt  Pt222     1.0  0.00000  0.55000  0.55000  1.0000
  Pt  Pt223     1.0  0.05000  0.50000  0.55000  1.0000
  Pt  Pt224     1.0  0.05000  0.55000  0.50000  1.0000
  Pt  Pt225     1.0  0.00000  0.50000  0.60000  1.0000
  Pt  Pt226     1.0  0.00000  0.55000  0.65000  1.0000
  Pt  Pt227     1.0  0.05000  0.50000  0.65000  1.0000
  Pt  Pt228     1.0  0.05000  0.55000  0.60000  1.0000
  Pt  Pt229     1.0  0.00000  0.50000  0.70000  1.0000
  Pt  Pt230     1.0  0.00000  0.55000  0.75000  1.0000
  Pt  Pt231     1.0  0.05000  0.50000  0.75000  1.0000
  Pt  Pt232     1.0  0.05000  0.55000  0.70000  1.0000
  Pt  Pt233     1.0  0.00000  0.50000  0.80000  1.0000
  Pt  Pt234     1.0  0.00000  0.55000  0.85000  1.0000
  Pt  Pt235     1.0  0.05000  0.50000  0.85000  1.0000
  Pt  Pt236     1.0  0.05000  0.55000  0.80000  1.0000
  Pt  Pt237     1.0  0.00000  0.50000  0.90000  1.0000
  Pt  Pt238     1.0  0.00000  0.55000  0.95000  1.0000
  Pt  Pt239     1.0  0.05000  0.50000  0.95000  1.0000
  Pt  Pt240     1.0  0.05000  0.55000  0.90000  1.0000
  Pt  Pt241     1.0  0.00000  0.60000  0.00000  1.0000
  Pt  Pt242     1.0  0.00000  0.65000  0.05000  1.0000
  Pt  Pt243     1.0  0.05000  0.60000  0.05000  1.0000
  Pt  Pt244     1.0  0.05000  0.65000  0.00000  1.0000
  Pt  Pt245     1.0  0.00000  0.60000  0.10000  1.0000
  Pt  Pt246     1.0  0.00000  0.65000  0.15000  1.0000
  Pt  Pt247     1.0  0.05000  0.60000  0.15000  1.0000
  Pt  Pt248     1.0  0.05000  0.65000  0.10000  1.0000
  Pt  Pt249     1.0  0.00000  0.60000  0.20000  1.0000
  Pt  Pt250     1.0  0.00000  0.65000  0.25000  1.0000
  Pt  Pt251     1.0  0.05000  0.60000  0.25000  1.0000
  Pt  Pt252     1.0  0.05000  0.65000  0.20000  1.0000
  Pt  Pt253     1.0  0.00000  0.60000  0.30000  1.0000
  Pt  Pt254     1.0  0.00000  0.65000  0.35000  1.0000
  Pt  Pt255     1.0  0.05000  0.60000  0.35000  1.0000
  Pt  Pt256     1.0  0.05000  0.65000  0.30000  1.0000
  Pt  Pt257     1.0  0.00000  0.60000  0.40000  1.0000
  Pt  Pt258     1.0  0.00000  0.65000  0.45000  1.0000
  Pt  Pt259     1.0  0.05000  0.60000  0.45000  1.0000
  Pt  Pt260     1.0  0.05000  0.65000  0.40000  1.0000
  Pt  Pt261     1.0  0.00000  0.60000  0.50000  1.0000
  Pt  Pt262     1.0  0.00000  0.65000  0.55000  1.0000
  Pt  Pt263     1.0  0.05000  0.60000  0.55000  1.0000
  Pt  Pt264     1.0  0.05000  0.65000  0.50000  1.0000
  Pt  Pt265     1.0  0.00000  0.60000  0.60000  1.0000
  Pt  Pt266     1.0  0.00000  0.65000  0.65000  1.0000
  Pt  Pt267     1.0  0.05000  0.60000  0.65000  1.0000
  Pt  Pt268     1.0  0.05000  0.65000  0.60000  1.0000
  Pt  Pt269     1.0  0.00000  0.60000  0.70000  1.0000
  Pt  Pt270     1.0  0.00000  0.65000  0.75000  1.0000
  Pt  Pt271     1.0  0.05000  0.60000  0.75000  1.0000
  Pt  Pt272     1.0  0.05000  0.65000  0.70000  1.0000
  Pt  Pt273     1.0  0.00000  0.60000  0.80000  1.0000
  Pt  Pt274     1.0  0.00000  0.65000  0.85000  1.0000
  Pt  Pt275     1.0  0.05000  0.60000  0.85000  1.0000
  Pt  Pt276     1.0  0.05000  0.65000  0.80000  1.0000
  Pt  Pt277     1.0  0.00000  0.60000  0.90000  1.0000
  Pt  Pt278     1.0  0.00000  0.65000  0.95000  1.0000
  Pt  Pt279     1.0  0.05000  0.60000  0.95000  1.0000
  Pt  Pt280     1.0  0.05000  0.65000  0.90000  1.0000
  Pt  Pt281     1.0  0.00000  0.70000  0.00000  1.0000
  Pt  Pt282     1.0  0.00000  0.75000  0.05000  1.0000
  Pt  Pt283     1.0  0.05000  0.70000  0.05000  1.0000
  Pt  Pt284     1.0  0.05000  0.75000  0.00000  1.0000
  Pt  Pt285     1.0  0.00000  0.70000  0.10000  1.0000
  Pt  Pt286     1.0  0.00000  0.75000  0.15000  1.0000
  Pt  Pt287     1.0  0.05000  0.70000  0.15000  1.0000
  Pt  Pt288     1.0  0.05000  0.75000  0.10000  1.0000
  Pt  Pt289     1.0  0.00000  0.70000  0.20000  1.0000
  Pt  Pt290     1.0  0.00000  0.75000  0.25000  1.0000
  Pt  Pt291     1.0  0.05000  0.70000  0.25000  1.0000
  Pt  Pt292     1.0  0.05000  0.75000  0.20000  1.0000
  Pt  Pt293     1.0  0.00000  0.70000  0.30000  1.0000
  Pt  Pt294     1.0  0.00000  0.75000  0.35000  1.0000
  Pt  Pt295     1.0  0.05000  0.70000  0.35000  1.0000
  Pt  Pt296     1.0  0.05000  0.75000  0.30000  1.0000
  Pt  Pt297     1.0  0.00000  0.70000  0.40000  1.0000
  Pt  Pt298     1.0  0.00000  0.75000  0.45000  1.0000
  Pt  Pt299     1.0  0.05000  0.70000  0.45000  1.0000
  Pt  Pt300     1.0  0.05000  0.75000  0.40000  1.0000
  Pt  Pt301     1.0  0.00000  0.70000  0.50000  1.0000
  Pt  Pt302     1.0  0.00000  0.75000  0.55000  1.0000
  Pt  Pt303     1.0  0.05000  0.70000  0.55000  1.0000
  Pt  Pt304     1.0  0.05000  0.75000  0.50000  1.0000
  Pt  Pt305     1.0  0.00000  0.70000  0.60000  1.0000
  Pt  Pt306     1.0  0.00000  0.75000  0.65000  1.0000
  Pt  Pt307     1.0  0.05000  0.70000  0.65000  1.0000
  Pt  Pt308     1.0  0.05000  0.75000  0.60000  1.0000
  Pt  Pt309     1.0  0.00000  0.70000  0.70000  1.0000
  Pt  Pt310     1.0  0.00000  0.75000  0.75000  1.0000
  Pt  Pt311     1.0  0.05000  0.70000  0.75000  1.0000
  Pt  Pt312     1.0  0.05000  0.75000  0.70000  1.0000
  Pt  Pt313     1.0  0.00000  0.70000  0.80000  1.0000
  Pt  Pt314     1.0  0.00000  0.75000  0.85000  1.0000
  Pt  Pt315     1.0  0.05000  0.70000  0.85000  1.0000
  Pt  Pt316     1.0  0.05000  0.75000  0.80000  1.0000
  Pt  Pt317     1.0  0.00000  0.70000  0.90000  1.0000
  Pt  Pt318     1.0  0.00000  0.75000  0.95000  1.0000
  Pt  Pt319     1.0  0.05000  0.70000  0.95000  1.0000
  Pt  Pt320     1.0  0.05000  0.75000  0.90000  1.0000
  Pt  Pt321     1.0  0.00000  0.80000  0.00000  1.0000
  Pt  Pt322     1.0  0.00000  0.85000  0.05000  1.0000
  Pt  Pt323     1.0  0.05000  0.80000  0.05000  1.0000
  Pt  Pt324     1.0  0.05000  0.85000  0.00000  1.0000
  Pt  Pt325     1.0  0.00000  0.80000  0.10000  1.0000
  Pt  Pt326     1.0  0.00000  0.85000  0.15000  1.0000
  Pt  Pt327     1.0  0.05000  0.80000  0.15000  1.0000
  Pt  Pt328     1.0  0.05000  0.85000  0.10000  1.0000
  Pt  Pt329     1.0  0.00000  0.80000  0.20000  1.0000
  Pt  Pt330     1.0  0.00000  0.85000  0.25000  1.0000
  Pt  Pt331     1.0  0.05000  0.80000  0.25000  1.0000
  Pt  Pt332     1.0  0.05000  0.85000  0.20000  1.0000
  Pt  Pt333     1.0  0.00000  0.80000  0.30000  1.0000
  Pt  Pt334     1.0  0.00000  0.85000  0.35000  1.0000
  Pt  Pt335     1.0  0.05000  0.80000  0.35000  1.0000
  Pt  Pt336     1.0  0.05000  0.85000  0.30000  1.0000
  Pt  Pt337     1.0  0.00000  0.80000  0.40000  1.0000
  Pt  Pt338     1.0  0.00000  0.85000  0.45000  1.0000
  Pt  Pt339     1.0  0.05000  0.80000  0.45000  1.0000
  Pt  Pt340     1.0  0.05000  0.85000  0.40000  1.0000
  Pt  Pt341     1.0  0.00000  0.80000  0.50000  1.0000
  Pt  Pt342     1.0  0.00000  0.85000  0.55000  1.0000
  Pt  Pt343     1.0  0.05000  0.80000  0.55000  1.0000
  Pt  Pt344     1.0  0.05000  0.85000  0.50000  1.0000
  Pt  Pt345     1.0  0.00000  0.80000  0.60000  1.0000
  Pt  Pt346     1.0  0.00000  0.85000  0.65000  1.0000
  Pt  Pt347     1.0  0.05000  0.80000  0.65000  1.0000
  Pt  Pt348     1.0  0.05000  0.85000  0.60000  1.0000
  Pt  Pt349     1.0  0.00000  0.80000  0.70000  1.0000
  Pt  Pt350     1.0  0.00000  0.85000  0.75000  1.0000
  Pt  Pt351     1.0  0.05000  0.80000  0.75000  1.0000
  Pt  Pt352     1.0  0.05000  0.85000  0.70000  1.0000
  Pt  Pt353     1.0  0.00000  0.80000  0.80000  1.0000
  Pt  Pt354     1.0  0.00000  0.85000  0.85000  1.0000
  Pt  Pt355     1.0  0.05000  0.80000  0.85000  1.0000
  Pt  Pt356     1.0  0.05000  0.85000  0.80000  1.0000
  Pt  Pt357     1.0  0.00000  0.80000  0.90000  1.0000
  Pt  Pt358     1.0  0.00000  0.85000  0.95000  1.0000
  Pt  Pt359     1.0  0.05000  0.80000  0.95000  1.0000
  Pt  Pt360     1.0  0.05000  0.85000  0.90000  1.0000
  Pt  Pt361     1.0  0.00000  0.90000  0.00000  1.0000
  Pt  Pt362     1.0  0.00000  0.95000  0.05000  1.0000
  Pt  Pt363     1.0  0.05000  0.90000  0.05000  1.0000
  Pt  Pt364     1.0  0.05000  0.95000  0.00000  1.0000
  Pt  Pt365     1.0  0.00000  0.90000  0.10000  1.0000
  Pt  Pt366     1.0  0.00000  0.95000  0.15000  1.0000
  Pt  Pt367     1.0  0.05000  0.90000  0.15000  1.0000
  Pt  Pt368     1.0  0.05000  0.95000  0.10000  1.0000
  Pt  Pt369     1.0  0.00000  0.90000  0.20000  1.0000
  Pt  Pt370     1.0  0.00000  0.95000  0.25000  1.0000
  Pt  Pt371     1.0  0.05000  0.90000  0.25000  1.0000
  Pt  Pt372     1.0  0.05000  0.95000  0.20000  1.0000
  Pt  Pt373     1.0  0.00000  0.90000  0.30000  1.0000
  Pt  Pt374     1.0  0.00000  0.95000  0.35000  1.0000
  Pt  Pt375     1.0  0.05000  0.90000  0.35000  1.0000
  Pt  Pt376     1.0  0.05000  0.95000  0.30000  1.0000
  Pt  Pt377     1.0  0.00000  0.90000  0.40000  1.0000
  Pt  Pt378     1.0  0.00000  0.95000  0.45000  1.0000
  Pt  Pt379     1.0  0.05000  0.90000  0.45000  1.0000
  Pt  Pt380     1.0  0.05000  0.95000  0.40000  1.0000
  Pt  Pt381     1.0  0.00000  0.90000  0.50000  1.0000
  Pt  Pt382     1.0  0.00000  0.95000  0.55000  1.0000
  Pt  Pt383     1.0  0.05000  0.90000  0.55000  1.0000
  Pt  Pt384     1.0  0.05000  0.95000  0.50000  1.0000
  Pt  Pt385     1.0  0.00000  0.90000  0.60000  1.0000
  Pt  Pt386     1.0  0.00000  0.95000  0.65000  1.0000
  Pt  Pt387     1.0  0.05000  0.90000  0.65000  1.0000
  Pt  Pt388     1.0  0.05000  0.95000  0.60000  1.0000
  Pt  Pt389     1.0  0.00000  0.90000  0.70000  1.0000
  Pt  Pt390     1.0  0.00000  0.95000  0.75000  1.0000
  Pt  Pt391     1.0  0.05000  0.90000  0.75000  1.0000
  Pt  Pt392     1.0  0.05000  0.95000  0.70000  1.0000
  Pt  Pt393     1.0  0.00000  0.90000  0.80000  1.0000
  Pt  Pt394     1.0  0.00000  0.95000  0.85000  1.0000
  Pt  Pt395     1.0  0.05000  0.90000  0.85000  1.0000
  Pt  Pt396     1.0  0.05000  0.95000  0.80000  1.0000
  Pt  Pt397     1.0  0.00000  0.90000  0.90000  1.0000
  Pt  Pt398     1.0  0.00000  0.95000  0.95000  1.0000
  Pt  Pt399     1.0  0.05000  0.90000  0.95000  1.0000
  Pt  Pt400     1.0  0.05000  0.95000  0.90000  1.0000
  Pt  Pt401     1.0  0.10000  0.00000  0.00000  1.0000
  Pt  Pt402     1.0  0.10000  0.05000  0.05000  1.0000
  Pt  Pt403     1.0  0.15000  0.00000  0.05000  1.0000
  Pt  Pt404     1.0  0.15000  0.05000  0.00000  1.0000
  Pt  Pt405     1.0  0.10000  0.00000  0.10000  1.0000
  Pt  Pt406     1.0  0.10000  0.05000  0.15000  1.0000
  Pt  Pt407     1.0  0.15000  0.00000  0.15000  1.0000
  Pt  Pt408     1.0  0.15000  0.05000  0.10000  1.0000
  Pt  Pt409     1.0  0.10000  0.00000  0.20000  1.0000
  Pt  Pt410     1.0  0.10000  0.05000  0.25000  1.0000
  Pt  Pt411     1.0  0.15000  0.00000  0.25000  1.0000
  Pt  Pt412     1.0  0.15000  0.05000  0.20000  1.0000
  Pt  Pt413     1.0  0.10000  0.00000  0.30000  1.0000
  Pt  Pt414     1.0  0.10000  0.05000  0.35000  1.0000
  Pt  Pt415     1.0  0.15000  0.00000  0.35000  1.0000
  Pt  Pt416     1.0  0.15000  0.05000  0.30000  1.0000
  Pt  Pt417     1.0  0.10000  0.00000  0.40000  1.0000
  Pt  Pt418     1.0  0.10000  0.05000  0.45000  1.0000
  Pt  Pt419     1.0  0.15000  0.00000  0.45000  1.0000
  Pt  Pt420     1.0  0.15000  0.05000  0.40000  1.0000
  Pt  Pt421     1.0  0.10000  0.00000  0.50000  1.0000
  Pt  Pt422     1.0  0.10000  0.05000  0.55000  1.0000
  Pt  Pt423     1.0  0.15000  0.00000  0.55000  1.0000
  Pt  Pt424     1.0  0.15000  0.05000  0.50000  1.0000
  Pt  Pt425     1.0  0.10000  0.00000  0.60000  1.0000
  Pt  Pt426     1.0  0.10000  0.05000  0.65000  1.0000
  Pt  Pt427     1.0  0.15000  0.00000  0.65000  1.0000
  Pt  Pt428     1.0  0.15000  0.05000  0.60000  1.0000
  Pt  Pt429     1.0  0.10000  0.00000  0.70000  1.0000
  Pt  Pt430     1.0  0.10000  0.05000  0.75000  1.0000
  Pt  Pt431     1.0  0.15000  0.00000  0.75000  1.0000
  Pt  Pt432     1.0  0.15000  0.05000  0.70000  1.0000
  Pt  Pt433     1.0  0.10000  0.00000  0.80000  1.0000
  Pt  Pt434     1.0  0.10000  0.05000  0.85000  1.0000
  Pt  Pt435     1.0  0.15000  0.00000  0.85000  1.0000
  Pt  Pt436     1.0  0.15000  0.05000  0.80000  1.0000
  Pt  Pt437     1.0  0.10000  0.00000  0.90000  1.0000
  Pt  Pt438     1.0  0.10000  0.05000  0.95000  1.0000
  Pt  Pt439     1.0  0.15000  0.00000  0.95000  1.0000
  Pt  Pt440     1.0  0.15000  0.05000  0.90000  1.0000
  Pt  Pt441     1.0  0.10000  0.10000  0.00000  1.0000
  Pt  Pt442     1.0  0.10000  0.15000  0.05000  1.0000
  Pt  Pt443     1.0  0.15000  0.10000  0.05000  1.0000
  Pt  Pt444     1.0  0.15000  0.15000  0.00000  1.0000
  Pt  Pt445     1.0  0.10000  0.10000  0.10000  1.0000
  Pt  Pt446     1.0  0.10000  0.15000  0.15000  1.0000
  Pt  Pt447     1.0  0.15000  0.10000  0.15000  1.0000
  Pt  Pt448     1.0  0.15000  0.15000  0.10000  1.0000
  Pt  Pt449     1.0  0.10000  0.10000  0.20000  1.0000
  Pt  Pt450     1.0  0.10000  0.15000  0.25000  1.0000
  Pt  Pt451     1.0  0.15000  0.10000  0.25000  1.0000
  Pt  Pt452     1.0  0.15000  0.15000  0.20000  1.0000
  Pt  Pt453     1.0  0.10000  0.10000  0.30000  1.0000
  Pt  Pt454     1.0  0.10000  0.15000  0.35000  1.0000
  Pt  Pt455     1.0  0.15000  0.10000  0.35000  1.0000
  Pt  Pt456     1.0  0.15000  0.15000  0.30000  1.0000
  Pt  Pt457     1.0  0.10000  0.10000  0.40000  1.0000
  Pt  Pt458     1.0  0.10000  0.15000  0.45000  1.0000
  Pt  Pt459     1.0  0.15000  0.10000  0.45000  1.0000
  Pt  Pt460     1.0  0.15000  0.15000  0.40000  1.0000
  Pt  Pt461     1.0  0.10000  0.10000  0.50000  1.0000
  Pt  Pt462     1.0  0.10000  0.15000  0.55000  1.0000
  Pt  Pt463     1.0  0.15000  0.10000  0.55000  1.0000
  Pt  Pt464     1.0  0.15000  0.15000  0.50000  1.0000
  Pt  Pt465     1.0  0.10000  0.10000  0.60000  1.0000
  Pt  Pt466     1.0  0.10000  0.15000  0.65000  1.0000
  Pt  Pt467     1.0  0.15000  0.10000  0.65000  1.0000
  Pt  Pt468     1.0  0.15000  0.15000  0.60000  1.0000
  Pt  Pt469     1.0  0.10000  0.10000  0.70000  1.0000
  Pt  Pt470     1.0  0.10000  0.15000  0.75000  1.0000
  Pt  Pt471     1.0  0.15000  0.10000  0.75000  1.0000
  Pt  Pt472     1.0  0.15000  0.15000  0.70000  1.0000
  Pt  Pt473     1.0  0.10000  0.10000  0.80000  1.0000
  Pt  Pt474     1.0  0.10000  0.15000  0.85000  1.0000
  Pt  Pt475     1.0  0.15000  0.10000  0.85000  1.0000
  Pt  Pt476     1.0  0.15000  0.15000  0.80000  1.0000
  Pt  Pt477     1.0  0.10000  0.10000  0.90000  1.0000
  Pt  Pt478     1.0  0.10000  0.15000  0.95000  1.0000
  Pt  Pt479     1.0  0.15000  0.10000  0.95000  1.0000
  Pt  Pt480     1.0  0.15000  0.15000  0.90000  1.0000
  Pt  Pt481     1.0  0.10000  0.20000  0.00000  1.0000
  Pt  Pt482     1.0  0.10000  0.25000  0.05000  1.0000
  Pt  Pt483     1.0  0.15000  0.20000  0.05000  1.0000
  Pt  Pt484     1.0  0.15000  0.25000  0.00000  1.0000
  Pt  Pt485     1.0  0.10000  0.20000  0.10000  1.0000
  Pt  Pt486     1.0  0.10000  0.25000  0.15000  1.0000
  Pt  Pt487     1.0  0.15000  0.20000  0.15000  1.0000
  Pt  Pt488     1.0  0.15000  0.25000  0.10000  1.0000
  Pt  Pt489     1.0  0.10000  0.20000  0.20000  1.0000
  Pt  Pt490     1.0  0.10000  0.25000  0.25000  1.0000
  Pt  Pt491     1.0  0.15000  0.20000  0.25000  1.0000
  Pt  Pt492     1.0  0.15000  0.25000  0.20000  1.0000
  Pt  Pt493     1.0  0.10000  0.20000  0.30000  1.0000
  Pt  Pt494     1.0  0.10000  0.25000  0.35000  1.0000
  Pt  Pt495     1.0  0.15000  0.20000  0.35000  1.0000
  Pt  Pt496     1.0  0.15000  0.25000  0.30000  1.0000
  Pt  Pt497     1.0  0.10000  0.20000  0.40000  1.0000
  Pt  Pt498     1.0  0.10000  0.25000  0.45000  1.0000
  Pt  Pt499     1.0  0.15000  0.20000  0.45000  1.0000
  Pt  Pt500     1.0  0.15000  0.25000  0.40000  1.0000
  Pt  Pt501     1.0  0.10000  0.20000  0.50000  1.0000
  Pt  Pt502     1.0  0.10000  0.25000  0.55000  1.0000
  Pt  Pt503     1.0  0.15000  0.20000  0.55000  1.0000
  Pt  Pt504     1.0  0.15000  0.25000  0.50000  1.0000
  Pt  Pt505     1.0  0.10000  0.20000  0.60000  1.0000
  Pt  Pt506     1.0  0.10000  0.25000  0.65000  1.0000
  Pt  Pt507     1.0  0.15000  0.20000  0.65000  1.0000
  Pt  Pt508     1.0  0.15000  0.25000  0.60000  1.0000
  Pt  Pt509     1.0  0.10000  0.20000  0.70000  1.0000
  Pt  Pt510     1.0  0.10000  0.25000  0.75000  1.0000
  Pt  Pt511     1.0  0.15000  0.20000  0.75000  1.0000
  Pt  Pt512     1.0  0.15000  0.25000  0.70000  1.0000
  Pt  Pt513     1.0  0.10000  0.20000  0.80000  1.0000
  Pt  Pt514     1.0  0.10000  0.25000  0.85000  1.0000
  Pt  Pt515     1.0  0.15000  0.20000  0.85000  1.0000
  Pt  Pt516     1.0  0.15000  0.25000  0.80000  1.0000
  Pt  Pt517     1.0  0.10000  0.20000  0.90000  1.0000
  Pt  Pt518     1.0  0.10000  0.25000  0.95000  1.0000
  Pt  Pt519     1.0  0.15000  0.20000  0.95000  1.0000
  Pt  Pt520     1.0  0.15000  0.25000  0.90000  1.0000
  Pt  Pt521     1.0  0.10000  0.30000  0.00000  1.0000
  Pt  Pt522     1.0  0.10000  0.35000  0.05000  1.0000
  Pt  Pt523     1.0  0.15000  0.30000  0.05000  1.0000
  Pt  Pt524     1.0  0.15000  0.35000  0.00000  1.0000
  Pt  Pt525     1.0  0.10000  0.30000  0.10000  1.0000
  Pt  Pt526     1.0  0.10000  0.35000  0.15000  1.0000
  Pt  Pt527     1.0  0.15000  0.30000  0.15000  1.0000
  Pt  Pt528     1.0  0.15000  0.35000  0.10000  1.0000
  Pt  Pt529     1.0  0.10000  0.30000  0.20000  1.0000
  Pt  Pt530     1.0  0.10000  0.35000  0.25000  1.0000
  Pt  Pt531     1.0  0.15000  0.30000  0.25000  1.0000
  Pt  Pt532     1.0  0.15000  0.35000  0.20000  1.0000
  Pt  Pt533     1.0  0.10000  0.30000  0.30000  1.0000
  Pt  Pt534     1.0  0.10000  0.35000  0.35000  1.0000
  Pt  Pt535     1.0  0.15000  0.30000  0.35000  1.0000
  Pt  Pt536     1.0  0.15000  0.35000  0.30000  1.0000
  Pt  Pt537     1.0  0.10000  0.30000  0.40000  1.0000
  Pt  Pt538     1.0  0.10000  0.35000  0.45000  1.0000
  Pt  Pt539     1.0  0.15000  0.30000  0.45000  1.0000
  Pt  Pt540     1.0  0.15000  0.35000  0.40000  1.0000
  Pt  Pt541     1.0  0.10000  0.30000  0.50000  1.0000
  Pt  Pt542     1.0  0.10000  0.35000  0.55000  1.0000
  Pt  Pt543     1.0  0.15000  0.30000  0.55000  1.0000
  Pt  Pt544     1.0  0.15000  0.35000  0.50000  1.0000
  Pt  Pt545     1.0  0.10000  0.30000  0.60000  1.0000
  Pt  Pt546     1.0  0.10000  0.35000  0.65000  1.0000
  Pt  Pt547     1.0  0.15000  0.30000  0.65000  1.0000
  Pt  Pt548     1.0  0.15000  0.35000  0.60000  1.0000
  Pt  Pt549     1.0  0.10000  0.30000  0.70000  1.0000
  Pt  Pt550     1.0  0.10000  0.35000  0.75000  1.0000
  Pt  Pt551     1.0  0.15000  0.30000  0.75000  1.0000
  Pt  Pt552     1.0  0.15000  0.35000  0.70000  1.0000
  Pt  Pt553     1.0  0.10000  0.30000  0.80000  1.0000
  Pt  Pt554     1.0  0.10000  0.35000  0.85000  1.0000
  Pt  Pt555     1.0  0.15000  0.30000  0.85000  1.0000
  Pt  Pt556     1.0  0.15000  0.35000  0.80000  1.0000
  Pt  Pt557     1.0  0.10000  0.30000  0.90000  1.0000
  Pt  Pt558     1.0  0.10000  0.35000  0.95000  1.0000
  Pt  Pt559     1.0  0.15000  0.30000  0.95000  1.0000
  Pt  Pt560     1.0  0.15000  0.35000  0.90000  1.0000
  Pt  Pt561     1.0  0.10000  0.40000  0.00000  1.0000
  Pt  Pt562     1.0  0.10000  0.45000  0.05000  1.0000
  Pt  Pt563     1.0  0.15000  0.40000  0.05000  1.0000
  Pt  Pt564     1.0  0.15000  0.45000  0.00000  1.0000
  Pt  Pt565     1.0  0.10000  0.40000  0.10000  1.0000
  Pt  Pt566     1.0  0.10000  0.45000  0.15000  1.0000
  Pt  Pt567     1.0  0.15000  0.40000  0.15000  1.0000
  Pt  Pt568     1.0  0.15000  0.45000  0.10000  1.0000
  Pt  Pt569     1.0  0.10000  0.40000  0.20000  1.0000
  Pt  Pt570     1.0  0.10000  0.45000  0.25000  1.0000
  Pt  Pt571     1.0  0.15000  0.40000  0.25000  1.0000
  Pt  Pt572     1.0  0.15000  0.45000  0.20000  1.0000
  Pt  Pt573     1.0  0.10000  0.40000  0.30000  1.0000
  Pt  Pt574     1.0  0.10000  0.45000  0.35000  1.0000
  Pt  Pt575     1.0  0.15000  0.40000  0.35000  1.0000
  Pt  Pt576     1.0  0.15000  0.45000  0.30000  1.0000
  Pt  Pt577     1.0  0.10000  0.40000  0.40000  1.0000
  Pt  Pt578     1.0  0.10000  0.45000  0.45000  1.0000
  Pt  Pt579     1.0  0.15000  0.40000  0.45000  1.0000
  Pt  Pt580     1.0  0.15000  0.45000  0.40000  1.0000
  Pt  Pt581     1.0  0.10000  0.40000  0.50000  1.0000
  Pt  Pt582     1.0  0.10000  0.45000  0.55000  1.0000
  Pt  Pt583     1.0  0.15000  0.40000  0.55000  1.0000
  Pt  Pt584     1.0  0.15000  0.45000  0.50000  1.0000
  Pt  Pt585     1.0  0.10000  0.40000  0.60000  1.0000
  Pt  Pt586     1.0  0.10000  0.45000  0.65000  1.0000
  Pt  Pt587     1.0  0.15000  0.40000  0.65000  1.0000
  Pt  Pt588     1.0  0.15000  0.45000  0.60000  1.0000
  Pt  Pt589     1.0  0.10000  0.40000  0.70000  1.0000
  Pt  Pt590     1.0  0.10000  0.45000  0.75000  1.0000
  Pt  Pt591     1.0  0.15000  0.40000  0.75000  1.0000
  Pt  Pt592     1.0  0.15000  0.45000  0.70000  1.0000
  Pt  Pt593     1.0  0.10000  0.40000  0.80000  1.0000
  Pt  Pt594     1.0  0.10000  0.45000  0.85000  1.0000
  Pt  Pt595     1.0  0.15000  0.40000  0.85000  1.0000
  Pt  Pt596     1.0  0.15000  0.45000  0.80000  1.0000
  Pt  Pt597     1.0  0.10000  0.40000  0.90000  1.0000
  Pt  Pt598     1.0  0.10000  0.45000  0.95000  1.0000
  Pt  Pt599     1.0  0.15000  0.40000  0.95000  1.0000
  Pt  Pt600     1.0  0.15000  0.45000  0.90000  1.0000
  Pt  Pt601     1.0  0.10000  0.50000  0.00000  1.0000
  Pt  Pt602     1.0  0.10000  0.55000  0.05000  1.0000
  Pt  Pt603     1.0  0.15000  0.50000  0.05000  1.0000
  Pt  Pt604     1.0  0.15000  0.55000  0.00000  1.0000
  Pt  Pt605     1.0  0.10000  0.50000  0.10000  1.0000
  Pt  Pt606     1.0  0.10000  0.55000  0.15000  1.0000
  Pt  Pt607     1.0  0.15000  0.50000  0.15000  1.0000
  Pt  Pt608     1.0  0.15000  0.55000  0.10000  1.0000
  Pt  Pt609     1.0  0.10000  0.50000  0.20000  1.0000
  Pt  Pt610     1.0  0.10000  0.55000  0.25000  1.0000
  Pt  Pt611     1.0  0.15000  0.50000  0.25000  1.0000
  Pt  Pt612     1.0  0.15000  0.55000  0.20000  1.0000
  Pt  Pt613     1.0  0.10000  0.50000  0.30000  1.0000
  Pt  Pt614     1.0  0.10000  0.55000  0.35000  1.0000
  Pt  Pt615     1.0  0.15000  0.50000  0.35000  1.0000
  Pt  Pt616     1.0  0.15000  0.55000  0.30000  1.0000
  Pt  Pt617     1.0  0.10000  0.50000  0.40000  1.0000
  Pt  Pt618     1.0  0.10000  0.55000  0.45000  1.0000
  Pt  Pt619     1.0  0.15000  0.50000  0.45000  1.0000
  Pt  Pt620     1.0  0.15000  0.55000  0.40000  1.0000
  Pt  Pt621     1.0  0.10000  0.50000  0.50000  1.0000
  Pt  Pt622     1.0  0.10000  0.55000  0.55000  1.0000
  Pt  Pt623     1.0  0.15000  0.50000  0.55000  1.0000
  Pt  Pt624     1.0  0.15000  0.55000  0.50000  1.0000
  Pt  Pt625     1.0  0.10000  0.50000  0.60000  1.0000
  Pt  Pt626     1.0  0.10000  0.55000  0.65000  1.0000
  Pt  Pt627     1.0  0.15000  0.50000  0.65000  1.0000
  Pt  Pt628     1.0  0.15000  0.55000  0.60000  1.0000
  Pt  Pt629     1.0  0.10000  0.50000  0.70000  1.0000
  Pt  Pt630     1.0  0.10000  0.55000  0.75000  1.0000
  Pt  Pt631     1.0  0.15000  0.50000  0.75000  1.0000
  Pt  Pt632     1.0  0.15000  0.55000  0.70000  1.0000
  Pt  Pt633     1.0  0.10000  0.50000  0.80000  1.0000
  Pt  Pt634     1.0  0.10000  0.55000  0.85000  1.0000
  Pt  Pt635     1.0  0.15000  0.50000  0.85000  1.0000
  Pt  Pt636     1.0  0.15000  0.55000  0.80000  1.0000
  Pt  Pt637     1.0  0.10000  0.50000  0.90000  1.0000
  Pt  Pt638     1.0  0.10000  0.55000  0.95000  1.0000
  Pt  Pt639     1.0  0.15000  0.50000  0.95000  1.0000
  Pt  Pt640     1.0  0.15000  0.55000  0.90000  1.0000
  Pt  Pt641     1.0  0.10000  0.60000  0.00000  1.0000
  Pt  Pt642     1.0  0.10000  0.65000  0.05000  1.0000
  Pt  Pt643     1.0  0.15000  0.60000  0.05000  1.0000
  Pt  Pt644     1.0  0.15000  0.65000  0.00000  1.0000
  Pt  Pt645     1.0  0.10000  0.60000  0.10000  1.0000
  Pt  Pt646     1.0  0.10000  0.65000  0.15000  1.0000
  Pt  Pt647     1.0  0.15000  0.60000  0.15000  1.0000
  Pt  Pt648     1.0  0.15000  0.65000  0.10000  1.0000
  Pt  Pt649     1.0  0.10000  0.60000  0.20000  1.0000
  Pt  Pt650     1.0  0.10000  0.65000  0.25000  1.0000
  Pt  Pt651     1.0  0.15000  0.60000  0.25000  1.0000
  Pt  Pt652     1.0  0.15000  0.65000  0.20000  1.0000
  Pt  Pt653     1.0  0.10000  0.60000  0.30000  1.0000
  Pt  Pt654     1.0  0.10000  0.65000  0.35000  1.0000
  Pt  Pt655     1.0  0.15000  0.60000  0.35000  1.0000
  Pt  Pt656     1.0  0.15000  0.65000  0.30000  1.0000
  Pt  Pt657     1.0  0.10000  0.60000  0.40000  1.0000
  Pt  Pt658     1.0  0.10000  0.65000  0.45000  1.0000
  Pt  Pt659     1.0  0.15000  0.60000  0.45000  1.0000
  Pt  Pt660     1.0  0.15000  0.65000  0.40000  1.0000
  Pt  Pt661     1.0  0.10000  0.60000  0.50000  1.0000
  Pt  Pt662     1.0  0.10000  0.65000  0.55000  1.0000
  Pt  Pt663     1.0  0.15000  0.60000  0.55000  1.0000
  Pt  Pt664     1.0  0.15000  0.65000  0.50000  1.0000
  Pt  Pt665     1.0  0.10000  0.60000  0.60000  1.0000
  Pt  Pt666     1.0  0.10000  0.65000  0.65000  1.0000
  Pt  Pt667     1.0  0.15000  0.60000  0.65000  1.0000
  Pt  Pt668     1.0  0.15000  0.65000  0.60000  1.0000
  Pt  Pt669     1.0  0.10000  0.60000  0.70000  1.0000
  Pt  Pt670     1.0  0.10000  0.65000  0.75000  1.0000
  Pt  Pt671     1.0  0.15000  0.60000  0.75000  1.0000
  Pt  Pt672     1.0  0.15000  0.65000  0.70000  1.0000
  Pt  Pt673     1.0  0.10000  0.60000  0.80000  1.0000
  Pt  Pt674     1.0  0.10000  0.65000  0.85000  1.0000
  Pt  Pt675     1.0  0.15000  0.60000  0.85000  1.0000
  Pt  Pt676     1.0  0.15000  0.65000  0.80000  1.0000
  Pt  Pt677     1.0  0.10000  0.60000  0.90000  1.0000
  Pt  Pt678     1.0  0.10000  0.65000  0.95000  1.0000
  Pt  Pt679     1.0  0.15000  0.60000  0.95000  1.0000
  Pt  Pt680     1.0  0.15000  0.65000  0.90000  1.0000
  Pt  Pt681     1.0  0.10000  0.70000  0.00000  1.0000
  Pt  Pt682     1.0  0.10000  0.75000  0.05000  1.0000
  Pt  Pt683     1.0  0.15000  0.70000  0.05000  1.0000
  Pt  Pt684     1.0  0.15000  0.75000  0.00000  1.0000
  Pt  Pt685     1.0  0.10000  0.70000  0.10000  1.0000
  Pt  Pt686     1.0  0.10000  0.75000  0.15000  1.0000
  Pt  Pt687     1.0  0.15000  0.70000  0.15000  1.0000
  Pt  Pt688     1.0  0.15000  0.75000  0.10000  1.0000
  Pt  Pt689     1.0  0.10000  0.70000  0.20000  1.0000
  Pt  Pt690     1.0  0.10000  0.75000  0.25000  1.0000
  Pt  Pt691     1.0  0.15000  0.70000  0.25000  1.0000
  Pt  Pt692     1.0  0.15000  0.75000  0.20000  1.0000
  Pt  Pt693     1.0  0.10000  0.70000  0.30000  1.0000
  Pt  Pt694     1.0  0.10000  0.75000  0.35000  1.0000
  Pt  Pt695     1.0  0.15000  0.70000  0.35000  1.0000
  Pt  Pt696     1.0  0.15000  0.75000  0.30000  1.0000
  Pt  Pt697     1.0  0.10000  0.70000  0.40000  1.0000
  Pt  Pt698     1.0  0.10000  0.75000  0.45000  1.0000
  Pt  Pt699     1.0  0.15000  0.70000  0.45000  1.0000
  Pt  Pt700     1.0  0.15000  0.75000  0.40000  1.0000
  Pt  Pt701     1.0  0.10000  0.70000  0.50000  1.0000
  Pt  Pt702     1.0  0.10000  0.75000  0.55000  1.0000
  Pt  Pt703     1.0  0.15000  0.70000  0.55000  1.0000
  Pt  Pt704     1.0  0.15000  0.75000  0.50000  1.0000
  Pt  Pt705     1.0  0.10000  0.70000  0.60000  1.0000
  Pt  Pt706     1.0  0.10000  0.75000  0.65000  1.0000
  Pt  Pt707     1.0  0.15000  0.70000  0.65000  1.0000
  Pt  Pt708     1.0  0.15000  0.75000  0.60000  1.0000
  Pt  Pt709     1.0  0.10000  0.70000  0.70000  1.0000
  Pt  Pt710     1.0  0.10000  0.75000  0.75000  1.0000
  Pt  Pt711     1.0  0.15000  0.70000  0.75000  1.0000
  Pt  Pt712     1.0  0.15000  0.75000  0.70000  1.0000
  Pt  Pt713     1.0  0.10000  0.70000  0.80000  1.0000
  Pt  Pt714     1.0  0.10000  0.75000  0.85000  1.0000
  Pt  Pt715     1.0  0.15000  0.70000  0.85000  1.0000
  Pt  Pt716     1.0  0.15000  0.75000  0.80000  1.0000
  Pt  Pt717     1.0  0.10000  0.70000  0.90000  1.0000
  Pt  Pt718     1.0  0.10000  0.75000  0.95000  1.0000
  Pt  Pt719     1.0  0.15000  0.70000  0.95000  1.0000
  Pt  Pt720     1.0  0.15000  0.75000  0.90000  1.0000
  Pt  Pt721     1.0  0.10000  0.80000  0.00000  1.0000
  Pt  Pt722     1.0  0.10000  0.85000  0.05000  1.0000
  Pt  Pt723     1.0  0.15000  0.80000  0.05000  1.0000
  Pt  Pt724     1.0  0.15000  0.85000  0.00000  1.0000
  Pt  Pt725     1.0  0.10000  0.80000  0.10000  1.0000
  Pt  Pt726     1.0  0.10000  0.85000  0.15000  1.0000
  Pt  Pt727     1.0  0.15000  0.80000  0.15000  1.0000
  Pt  Pt728     1.0  0.15000  0.85000  0.10000  1.0000
  Pt  Pt729     1.0  0.10000  0.80000  0.20000  1.0000
  Pt  Pt730     1.0  0.10000  0.85000  0.25000  1.0000
  Pt  Pt731     1.0  0.15000  0.80000  0.25000  1.0000
  Pt  Pt732     1.0  0.15000  0.85000  0.20000  1.0000
  Pt  Pt733     1.0  0.10000  0.80000  0.30000  1.0000
  Pt  Pt734     1.0  0.10000  0.85000  0.35000  1.0000
  Pt  Pt735     1.0  0.15000  0.80000  0.35000  1.0000
  Pt  Pt736     1.0  0.15000  0.85000  0.30000  1.0000
  Pt  Pt737     1.0  0.10000  0.80000  0.40000  1.0000
  Pt  Pt738     1.0  0.10000  0.85000  0.45000  1.0000
  Pt  Pt739     1.0  0.15000  0.80000  0.45000  1.0000
  Pt  Pt740     1.0  0.15000  0.85000  0.40000  1.0000
  Pt  Pt741     1.0  0.10000  0.80000  0.50000  1.0000
  Pt  Pt742     1.0  0.10000  0.85000  0.55000  1.0000
  Pt  Pt743     1.0  0.15000  0.80000  0.55000  1.0000
  Pt  Pt744     1.0  0.15000  0.85000  0.50000  1.0000
  Pt  Pt745     1.0  0.10000  0.80000  0.60000  1.0000
  Pt  Pt746     1.0  0.10000  0.85000  0.65000  1.0000
  Pt  Pt747     1.0  0.15000  0.80000  0.65000  1.0000
  Pt  Pt748     1.0  0.15000  0.85000  0.60000  1.0000
  Pt  Pt749     1.0  0.10000  0.80000  0.70000  1.0000
  Pt  Pt750     1.0  0.10000  0.85000  0.75000  1.0000
  Pt  Pt751     1.0  0.15000  0.80000  0.75000  1.0000
  Pt  Pt752     1.0  0.15000  0.85000  0.70000  1.0000
  Pt  Pt753     1.0  0.10000  0.80000  0.80000  1.0000
  Pt  Pt754     1.0  0.10000  0.85000  0.85000  1.0000
  Pt  Pt755     1.0  0.15000  0.80000  0.85000  1.0000
  Pt  Pt756     1.0  0.15000  0.85000  0.80000  1.0000
  Pt  Pt757     1.0  0.10000  0.80000  0.90000  1.0000
  Pt  Pt758     1.0  0.10000  0.85000  0.95000  1.0000
  Pt  Pt759     1.0  0.15000  0.80000  0.95000  1.0000
  Pt  Pt760     1.0  0.15000  0.85000  0.90000  1.0000
  Pt  Pt761     1.0  0.10000  0.90000  0.00000  1.0000
  Pt  Pt762     1.0  0.10000  0.95000  0.05000  1.0000
  Pt  Pt763     1.0  0.15000  0.90000  0.05000  1.0000
  Pt  Pt764     1.0  0.15000  0.95000  0.00000  1.0000
  Pt  Pt765     1.0  0.10000  0.90000  0.10000  1.0000
  Pt  Pt766     1.0  0.10000  0.95000  0.15000  1.0000
  Pt  Pt767     1.0  0.15000  0.90000  0.15000  1.0000
  Pt  Pt768     1.0  0.15000  0.95000  0.10000  1.0000
  Pt  Pt769     1.0  0.10000  0.90000  0.20000  1.0000
  Pt  Pt770     1.0  0.10000  0.95000  0.25000  1.0000
  Pt  Pt771     1.0  0.15000  0.90000  0.25000  1.0000
  Pt  Pt772     1.0  0.15000  0.95000  0.20000  1.0000
  Pt  Pt773     1.0  0.10000  0.90000  0.30000  1.0000
  Pt  Pt774     1.0  0.10000  0.95000  0.35000  1.0000
  Pt  Pt775     1.0  0.15000  0.90000  0.35000  1.0000
  Pt  Pt776     1.0  0.15000  0.95000  0.30000  1.0000
  Pt  Pt777     1.0  0.10000  0.90000  0.40000  1.0000
  Pt  Pt778     1.0  0.10000  0.95000  0.45000  1.0000
  Pt  Pt779     1.0  0.15000  0.90000  0.45000  1.0000
  Pt  Pt780     1.0  0.15000  0.95000  0.40000  1.0000
  Pt  Pt781     1.0  0.10000  0.90000  0.50000  1.0000
  Pt  Pt782     1.0  0.10000  0.95000  0.55000  1.0000
  Pt  Pt783     1.0  0.15000  0.90000  0.55000  1.0000
  Pt  Pt784     1.0  0.15000  0.95000  0.50000  1.0000
  Pt  Pt785     1.0  0.10000  0.90000  0.60000  1.0000
  Pt  Pt786     1.0  0.10000  0.95000  0.65000  1.0000
  Pt  Pt787     1.0  0.15000  0.90000  0.65000  1.0000
  Pt  Pt788     1.0  0.15000  0.95000  0.60000  1.0000
  Pt  Pt789     1.0  0.10000  0.90000  0.70000  1.0000
  Pt  Pt790     1.0  0.10000  0.95000  0.75000  1.0000
  Pt  Pt791     1.0  0.15000  0.90000  0.75000  1.0000
  Pt  Pt792     1.0  0.15000  0.95000  0.70000  1.0000
  Pt  Pt793     1.0  0.10000  0.90000  0.80000  1.0000
  Pt  Pt794     1.0  0.10000  0.95000  0.85000  1.0000
  Pt  Pt795     1.0  0.15000  0.90000  0.85000  1.0000
  Pt  Pt796     1.0  0.15000  0.95000  0.80000  1.0000
  Pt  Pt797     1.0  0.10000  0.90000  0.90000  1.0000
  Pt  Pt798     1.0  0.10000  0.95000  0.95000  1.0000
  Pt  Pt799     1.0  0.15000  0.90000  0.95000  1.0000
  Pt  Pt800     1.0  0.15000  0.95000  0.90000  1.0000
  Pt  Pt801     1.0  0.20000  0.00000  0.00000  1.0000
  Pt  Pt802     1.0  0.20000  0.05000  0.05000  1.0000
  Pt  Pt803     1.0  0.25000  0.00000  0.05000  1.0000
  Pt  Pt804     1.0  0.25000  0.05000  0.00000  1.0000
  Pt  Pt805     1.0  0.20000  0.00000  0.10000  1.0000
  Pt  Pt806     1.0  0.20000  0.05000  0.15000  1.0000
  Pt  Pt807     1.0  0.25000  0.00000  0.15000  1.0000
  Pt  Pt808     1.0  0.25000  0.05000  0.10000  1.0000
  Pt  Pt809     1.0  0.20000  0.00000  0.20000  1.0000
  Pt  Pt810     1.0  0.20000  0.05000  0.25000  1.0000
  Pt  Pt811     1.0  0.25000  0.00000  0.25000  1.0000
  Pt  Pt812     1.0  0.25000  0.05000  0.20000  1.0000
  Pt  Pt813     1.0  0.20000  0.00000  0.30000  1.0000
  Pt  Pt814     1.0  0.20000  0.05000  0.35000  1.0000
  Pt  Pt815     1.0  0.25000  0.00000  0.35000  1.0000
  Pt  Pt816     1.0  0.25000  0.05000  0.30000  1.0000
  Pt  Pt817     1.0  0.20000  0.00000  0.40000  1.0000
  Pt  Pt818     1.0  0.20000  0.05000  0.45000  1.0000
  Pt  Pt819     1.0  0.25000  0.00000  0.45000  1.0000
  Pt  Pt820     1.0  0.25000  0.05000  0.40000  1.0000
  Pt  Pt821     1.0  0.20000  0.00000  0.50000  1.0000
  Pt  Pt822     1.0  0.20000  0.05000  0.55000  1.0000
  Pt  Pt823     1.0  0.25000  0.00000  0.55000  1.0000
  Pt  Pt824     1.0  0.25000  0.05000  0.50000  1.0000
  Pt  Pt825     1.0  0.20000  0.00000  0.60000  1.0000
  Pt  Pt826     1.0  0.20000  0.05000  0.65000  1.0000
  Pt  Pt827     1.0  0.25000  0.00000  0.65000  1.0000
  Pt  Pt828     1.0  0.25000  0.05000  0.60000  1.0000
  Pt  Pt829     1.0  0.20000  0.00000  0.70000  1.0000
  Pt  Pt830     1.0  0.20000  0.05000  0.75000  1.0000
  Pt  Pt831     1.0  0.25000  0.00000  0.75000  1.0000
  Pt  Pt832     1.0  0.25000  0.05000  0.70000  1.0000
  Pt  Pt833     1.0  0.20000  0.00000  0.80000  1.0000
  Pt  Pt834     1.0  0.20000  0.05000  0.85000  1.0000
  Pt  Pt835     1.0  0.25000  0.00000  0.85000  1.0000
  Pt  Pt836     1.0  0.25000  0.05000  0.80000  1.0000
  Pt  Pt837     1.0  0.20000  0.00000  0.90000  1.0000
  Pt  Pt838     1.0  0.20000  0.05000  0.95000  1.0000
  Pt  Pt839     1.0  0.25000  0.00000  0.95000  1.0000
  Pt  Pt840     1.0  0.25000  0.05000  0.90000  1.0000
  Pt  Pt841     1.0  0.20000  0.10000  0.00000  1.0000
  Pt  Pt842     1.0  0.20000  0.15000  0.05000  1.0000
  Pt  Pt843     1.0  0.25000  0.10000  0.05000  1.0000
  Pt  Pt844     1.0  0.25000  0.15000  0.00000  1.0000
  Pt  Pt845     1.0  0.20000  0.10000  0.10000  1.0000
  Pt  Pt846     1.0  0.20000  0.15000  0.15000  1.0000
  Pt  Pt847     1.0  0.25000  0.10000  0.15000  1.0000
  Pt  Pt848     1.0  0.25000  0.15000  0.10000  1.0000
  Pt  Pt849     1.0  0.20000  0.10000  0.20000  1.0000
  Pt  Pt850     1.0  0.20000  0.15000  0.25000  1.0000
  Pt  Pt851     1.0  0.25000  0.10000  0.25000  1.0000
  Pt  Pt852     1.0  0.25000  0.15000  0.20000  1.0000
  Pt  Pt853     1.0  0.20000  0.10000  0.30000  1.0000
  Pt  Pt854     1.0  0.20000  0.15000  0.35000  1.0000
  Pt  Pt855     1.0  0.25000  0.10000  0.35000  1.0000
  Pt  Pt856     1.0  0.25000  0.15000  0.30000  1.0000
  Pt  Pt857     1.0  0.20000  0.10000  0.40000  1.0000
  Pt  Pt858     1.0  0.20000  0.15000  0.45000  1.0000
  Pt  Pt859     1.0  0.25000  0.10000  0.45000  1.0000
  Pt  Pt860     1.0  0.25000  0.15000  0.40000  1.0000
  Pt  Pt861     1.0  0.20000  0.10000  0.50000  1.0000
  Pt  Pt862     1.0  0.20000  0.15000  0.55000  1.0000
  Pt  Pt863     1.0  0.25000  0.10000  0.55000  1.0000
  Pt  Pt864     1.0  0.25000  0.15000  0.50000  1.0000
  Pt  Pt865     1.0  0.20000  0.10000  0.60000  1.0000
  Pt  Pt866     1.0  0.20000  0.15000  0.65000  1.0000
  Pt  Pt867     1.0  0.25000  0.10000  0.65000  1.0000
  Pt  Pt868     1.0  0.25000  0.15000  0.60000  1.0000
  Pt  Pt869     1.0  0.20000  0.10000  0.70000  1.0000
  Pt  Pt870     1.0  0.20000  0.15000  0.75000  1.0000
  Pt  Pt871     1.0  0.25000  0.10000  0.75000  1.0000
  Pt  Pt872     1.0  0.25000  0.15000  0.70000  1.0000
  Pt  Pt873     1.0  0.20000  0.10000  0.80000  1.0000
  Pt  Pt874     1.0  0.20000  0.15000  0.85000  1.0000
  Pt  Pt875     1.0  0.25000  0.10000  0.85000  1.0000
  Pt  Pt876     1.0  0.25000  0.15000  0.80000  1.0000
  Pt  Pt877     1.0  0.20000  0.10000  0.90000  1.0000
  Pt  Pt878     1.0  0.20000  0.15000  0.95000  1.0000
  Pt  Pt879     1.0  0.25000  0.10000  0.95000  1.0000
  Pt  Pt880     1.0  0.25000  0.15000  0.90000  1.0000
  Pt  Pt881     1.0  0.20000  0.20000  0.00000  1.0000
  Pt  Pt882     1.0  0.20000  0.25000  0.05000  1.0000
  Pt  Pt883     1.0  0.25000  0.20000  0.05000  1.0000
  Pt  Pt884     1.0  0.25000  0.25000  0.00000  1.0000
  Pt  Pt885     1.0  0.20000  0.20000  0.10000  1.0000
  Pt  Pt886     1.0  0.20000  0.25000  0.15000  1.0000
  Pt  Pt887     1.0  0.25000  0.20000  0.15000  1.0000
  Pt  Pt888     1.0  0.25000  0.25000  0.10000  1.0000
  Pt  Pt889     1.0  0.20000  0.20000  0.20000  1.0000
  Pt  Pt890     1.0  0.20000  0.25000  0.25000  1.0000
  Pt  Pt891     1.0  0.25000  0.20000  0.25000  1.0000
  Pt  Pt892     1.0  0.25000  0.25000  0.20000  1.0000
  Pt  Pt893     1.0  0.20000  0.20000  0.30000  1.0000
  Pt  Pt894     1.0  0.20000  0.25000  0.35000  1.0000
  Pt  Pt895     1.0  0.25000  0.20000  0.35000  1.0000
  Pt  Pt896     1.0  0.25000  0.25000  0.30000  1.0000
  Pt  Pt897     1.0  0.20000  0.20000  0.40000  1.0000
  Pt  Pt898     1.0  0.20000  0.25000  0.45000  1.0000
  Pt  Pt899     1.0  0.25000  0.20000  0.45000  1.0000
  Pt  Pt900     1.0  0.25000  0.25000  0.40000  1.0000
  Pt  Pt901     1.0  0.20000  0.20000  0.50000  1.0000
  Pt  Pt902     1.0  0.20000  0.25000  0.55000  1.0000
  Pt  Pt903     1.0  0.25000  0.20000  0.55000  1.0000
  Pt  Pt904     1.0  0.25000  0.25000  0.50000  1.0000
  Pt  Pt905     1.0  0.20000  0.20000  0.60000  1.0000
  Pt  Pt906     1.0  0.20000  0.25000  0.65000  1.0000
  Pt  Pt907     1.0  0.25000  0.20000  0.65000  1.0000
  Pt  Pt908     1.0  0.25000  0.25000  0.60000  1.0000
  Pt  Pt909     1.0  0.20000  0.20000  0.70000  1.0000
  Pt  Pt910     1.0  0.20000  0.25000  0.75000  1.0000
  Pt  Pt911     1.0  0.25000  0.20000  0.75000  1.0000
  Pt  Pt912     1.0  0.25000  0.25000  0.70000  1.0000
  Pt  Pt913     1.0  0.20000  0.20000  0.80000  1.0000
  Pt  Pt914     1.0  0.20000  0.25000  0.85000  1.0000
  Pt  Pt915     1.0  0.25000  0.20000  0.85000  1.0000
  Pt  Pt916     1.0  0.25000  0.25000  0.80000  1.0000
  Pt  Pt917     1.0  0.20000  0.20000  0.90000  1.0000
  Pt  Pt918     1.0  0.20000  0.25000  0.95000  1.0000
  Pt  Pt919     1.0  0.25000  0.20000  0.95000  1.0000
  Pt  Pt920     1.0  0.25000  0.25000  0.90000  1.0000
  Pt  Pt921     1.0  0.20000  0.30000  0.00000  1.0000
  Pt  Pt922     1.0  0.20000  0.35000  0.05000  1.0000
  Pt  Pt923     1.0  0.25000  0.30000  0.05000  1.0000
  Pt  Pt924     1.0  0.25000  0.35000  0.00000  1.0000
  Pt  Pt925     1.0  0.20000  0.30000  0.10000  1.0000
  Pt  Pt926     1.0  0.20000  0.35000  0.15000  1.0000
  Pt  Pt927     1.0  0.25000  0.30000  0.15000  1.0000
  Pt  Pt928     1.0  0.25000  0.35000  0.10000  1.0000
  Pt  Pt929     1.0  0.20000  0.30000  0.20000  1.0000
  Pt  Pt930     1.0  0.20000  0.35000  0.25000  1.0000
  Pt  Pt931     1.0  0.25000  0.30000  0.25000  1.0000
  Pt  Pt932     1.0  0.25000  0.35000  0.20000  1.0000
  Pt  Pt933     1.0  0.20000  0.30000  0.30000  1.0000
  Pt  Pt934     1.0  0.20000  0.35000  0.35000  1.0000
  Pt  Pt935     1.0  0.25000  0.30000  0.35000  1.0000
  Pt  Pt936     1.0  0.25000  0.35000  0.30000  1.0000
  Pt  Pt937     1.0  0.20000  0.30000  0.40000  1.0000
  Pt  Pt938     1.0  0.20000  0.35000  0.45000  1.0000
  Pt  Pt939     1.0  0.25000  0.30000  0.45000  1.0000
  Pt  Pt940     1.0  0.25000  0.35000  0.40000  1.0000
  Pt  Pt941     1.0  0.20000  0.30000  0.50000  1.0000
  Pt  Pt942     1.0  0.20000  0.35000  0.55000  1.0000
  Pt  Pt943     1.0  0.25000  0.30000  0.55000  1.0000
  Pt  Pt944     1.0  0.25000  0.35000  0.50000  1.0000
  Pt  Pt945     1.0  0.20000  0.30000  0.60000  1.0000
  Pt  Pt946     1.0  0.20000  0.35000  0.65000  1.0000
  Pt  Pt947     1.0  0.25000  0.30000  0.65000  1.0000
  Pt  Pt948     1.0  0.25000  0.35000  0.60000  1.0000
  Pt  Pt949     1.0  0.20000  0.30000  0.70000  1.0000
  Pt  Pt950     1.0  0.20000  0.35000  0.75000  1.0000
  Pt  Pt951     1.0  0.25000  0.30000  0.75000  1.0000
  Pt  Pt952     1.0  0.25000  0.35000  0.70000  1.0000
  Pt  Pt953     1.0  0.20000  0.30000  0.80000  1.0000
  Pt  Pt954     1.0  0.20000  0.35000  0.85000  1.0000
  Pt  Pt955     1.0  0.25000  0.30000  0.85000  1.0000
  Pt  Pt956     1.0  0.25000  0.35000  0.80000  1.0000
  Pt  Pt957     1.0  0.20000  0.30000  0.90000  1.0000
  Pt  Pt958     1.0  0.20000  0.35000  0.95000  1.0000
  Pt  Pt959     1.0  0.25000  0.30000  0.95000  1.0000
  Pt  Pt960     1.0  0.25000  0.35000  0.90000  1.0000
  Pt  Pt961     1.0  0.20000  0.40000  0.00000  1.0000
  Pt  Pt962     1.0  0.20000  0.45000  0.05000  1.0000
  Pt  Pt963     1.0  0.25000  0.40000  0.05000  1.0000
  Pt  Pt964     1.0  0.25000  0.45000  0.00000  1.0000
  Pt  Pt965     1.0  0.20000  0.40000  0.10000  1.0000
  Pt  Pt966     1.0  0.20000  0.45000  0.15000  1.0000
  Pt  Pt967     1.0  0.25000  0.40000  0.15000  1.0000
  Pt  Pt968     1.0  0.25000  0.45000  0.10000  1.0000
  Pt  Pt969     1.0  0.20000  0.40000  0.20000  1.0000
  Pt  Pt970     1.0  0.20000  0.45000  0.25000  1.0000
  Pt  Pt971     1.0  0.25000  0.40000  0.25000  1.0000
  Pt  Pt972     1.0  0.25000  0.45000  0.20000  1.0000
  Pt  Pt973     1.0  0.20000  0.40000  0.30000  1.0000
  Pt  Pt974     1.0  0.20000  0.45000  0.35000  1.0000
  Pt  Pt975     1.0  0.25000  0.40000  0.35000  1.0000
  Pt  Pt976     1.0  0.25000  0.45000  0.30000  1.0000
  Pt  Pt977     1.0  0.20000  0.40000  0.40000  1.0000
  Pt  Pt978     1.0  0.20000  0.45000  0.45000  1.0000
  Pt  Pt979     1.0  0.25000  0.40000  0.45000  1.0000
  Pt  Pt980     1.0  0.25000  0.45000  0.40000  1.0000
  Pt  Pt981     1.0  0.20000  0.40000  0.50000  1.0000
  Pt  Pt982     1.0  0.20000  0.45000  0.55000  1.0000
  Pt  Pt983     1.0  0.25000  0.40000  0.55000  1.0000
  Pt  Pt984     1.0  0.25000  0.45000  0.50000  1.0000
  Pt  Pt985     1.0  0.20000  0.40000  0.60000  1.0000
  Pt  Pt986     1.0  0.20000  0.45000  0.65000  1.0000
  Pt  Pt987     1.0  0.25000  0.40000  0.65000  1.0000
  Pt  Pt988     1.0  0.25000  0.45000  0.60000  1.0000
  Pt  Pt989     1.0  0.20000  0.40000  0.70000  1.0000
  Pt  Pt990     1.0  0.20000  0.45000  0.75000  1.0000
  Pt  Pt991     1.0  0.25000  0.40000  0.75000  1.0000
  Pt  Pt992     1.0  0.25000  0.45000  0.70000  1.0000
  Pt  Pt993     1.0  0.20000  0.40000  0.80000  1.0000
  Pt  Pt994     1.0  0.20000  0.45000  0.85000  1.0000
  Pt  Pt995     1.0  0.25000  0.40000  0.85000  1.0000
  Pt  Pt996     1.0  0.25000  0.45000  0.80000  1.0000
  Pt  Pt997     1.0  0.20000  0.40000  0.90000  1.0000
  Pt  Pt998     1.0  0.20000  0.45000  0.95000  1.0000
  Pt  Pt999     1.0  0.25000  0.40000  0.95000  1.0000
  Pt  Pt1000    1.0  0.25000  0.45000  0.90000  1.0000
  Pt  Pt1001    1.0  0.20000  0.50000  0.00000  1.0000
  Pt  Pt1002    1.0  0.20000  0.55000  0.05000  1.0000
  Pt  Pt1003    1.0  0.25000  0.50000  0.05000  1.0000
  Pt  Pt1004    1.0  0.25000  0.55000  0.00000  1.0000
  Pt  Pt1005    1.0  0.20000  0.50000  0.10000  1.0000
  Pt  Pt1006    1.0  0.20000  0.55000  0.15000  1.0000
  Pt  Pt1007    1.0  0.25000  0.50000  0.15000  1.0000
  Pt  Pt1008    1.0  0.25000  0.55000  0.10000  1.0000
  Pt  Pt1009    1.0  0.20000  0.50000  0.20000  1.0000
  Pt  Pt1010    1.0  0.20000  0.55000  0.25000  1.0000
  Pt  Pt1011    1.0  0.25000  0.50000  0.25000  1.0000
  Pt  Pt1012    1.0  0.25000  0.55000  0.20000  1.0000
  Pt  Pt1013    1.0  0.20000  0.50000  0.30000  1.0000
  Pt  Pt1014    1.0  0.20000  0.55000  0.35000  1.0000
  Pt  Pt1015    1.0  0.25000  0.50000  0.35000  1.0000
  Pt  Pt1016    1.0  0.25000  0.55000  0.30000  1.0000
  Pt  Pt1017    1.0  0.20000  0.50000  0.40000  1.0000
  Pt  Pt1018    1.0  0.20000  0.55000  0.45000  1.0000
  Pt  Pt1019    1.0  0.25000  0.50000  0.45000  1.0000
  Pt  Pt1020    1.0  0.25000  0.55000  0.40000  1.0000
  Pt  Pt1021    1.0  0.20000  0.50000  0.50000  1.0000
  Pt  Pt1022    1.0  0.20000  0.55000  0.55000  1.0000
  Pt  Pt1023    1.0  0.25000  0.50000  0.55000  1.0000
  Pt  Pt1024    1.0  0.25000  0.55000  0.50000  1.0000
  Pt  Pt1025    1.0  0.20000  0.50000  0.60000  1.0000
  Pt  Pt1026    1.0  0.20000  0.55000  0.65000  1.0000
  Pt  Pt1027    1.0  0.25000  0.50000  0.65000  1.0000
  Pt  Pt1028    1.0  0.25000  0.55000  0.60000  1.0000
  Pt  Pt1029    1.0  0.20000  0.50000  0.70000  1.0000
  Pt  Pt1030    1.0  0.20000  0.55000  0.75000  1.0000
  Pt  Pt1031    1.0  0.25000  0.50000  0.75000  1.0000
  Pt  Pt1032    1.0  0.25000  0.55000  0.70000  1.0000
  Pt  Pt1033    1.0  0.20000  0.50000  0.80000  1.0000
  Pt  Pt1034    1.0  0.20000  0.55000  0.85000  1.0000
  Pt  Pt1035    1.0  0.25000  0.50000  0.85000  1.0000
  Pt  Pt1036    1.0  0.25000  0.55000  0.80000  1.0000
  Pt  Pt1037    1.0  0.20000  0.50000  0.90000  1.0000
  Pt  Pt1038    1.0  0.20000  0.55000  0.95000  1.0000
  Pt  Pt1039    1.0  0.25000  0.50000  0.95000  1.0000
  Pt  Pt1040    1.0  0.25000  0.55000  0.90000  1.0000
  Pt  Pt1041    1.0  0.20000  0.60000  0.00000  1.0000
  Pt  Pt1042    1.0  0.20000  0.65000  0.05000  1.0000
  Pt  Pt1043    1.0  0.25000  0.60000  0.05000  1.0000
  Pt  Pt1044    1.0  0.25000  0.65000  0.00000  1.0000
  Pt  Pt1045    1.0  0.20000  0.60000  0.10000  1.0000
  Pt  Pt1046    1.0  0.20000  0.65000  0.15000  1.0000
  Pt  Pt1047    1.0  0.25000  0.60000  0.15000  1.0000
  Pt  Pt1048    1.0  0.25000  0.65000  0.10000  1.0000
  Pt  Pt1049    1.0  0.20000  0.60000  0.20000  1.0000
  Pt  Pt1050    1.0  0.20000  0.65000  0.25000  1.0000
  Pt  Pt1051    1.0  0.25000  0.60000  0.25000  1.0000
  Pt  Pt1052    1.0  0.25000  0.65000  0.20000  1.0000
  Pt  Pt1053    1.0  0.20000  0.60000  0.30000  1.0000
  Pt  Pt1054    1.0  0.20000  0.65000  0.35000  1.0000
  Pt  Pt1055    1.0  0.25000  0.60000  0.35000  1.0000
  Pt  Pt1056    1.0  0.25000  0.65000  0.30000  1.0000
  Pt  Pt1057    1.0  0.20000  0.60000  0.40000  1.0000
  Pt  Pt1058    1.0  0.20000  0.65000  0.45000  1.0000
  Pt  Pt1059    1.0  0.25000  0.60000  0.45000  1.0000
  Pt  Pt1060    1.0  0.25000  0.65000  0.40000  1.0000
  Pt  Pt1061    1.0  0.20000  0.60000  0.50000  1.0000
  Pt  Pt1062    1.0  0.20000  0.65000  0.55000  1.0000
  Pt  Pt1063    1.0  0.25000  0.60000  0.55000  1.0000
  Pt  Pt1064    1.0  0.25000  0.65000  0.50000  1.0000
  Pt  Pt1065    1.0  0.20000  0.60000  0.60000  1.0000
  Pt  Pt1066    1.0  0.20000  0.65000  0.65000  1.0000
  Pt  Pt1067    1.0  0.25000  0.60000  0.65000  1.0000
  Pt  Pt1068    1.0  0.25000  0.65000  0.60000  1.0000
  Pt  Pt1069    1.0  0.20000  0.60000  0.70000  1.0000
  Pt  Pt1070    1.0  0.20000  0.65000  0.75000  1.0000
  Pt  Pt1071    1.0  0.25000  0.60000  0.75000  1.0000
  Pt  Pt1072    1.0  0.25000  0.65000  0.70000  1.0000
  Pt  Pt1073    1.0  0.20000  0.60000  0.80000  1.0000
  Pt  Pt1074    1.0  0.20000  0.65000  0.85000  1.0000
  Pt  Pt1075    1.0  0.25000  0.60000  0.85000  1.0000
  Pt  Pt1076    1.0  0.25000  0.65000  0.80000  1.0000
  Pt  Pt1077    1.0  0.20000  0.60000  0.90000  1.0000
  Pt  Pt1078    1.0  0.20000  0.65000  0.95000  1.0000
  Pt  Pt1079    1.0  0.25000  0.60000  0.95000  1.0000
  Pt  Pt1080    1.0  0.25000  0.65000  0.90000  1.0000
  Pt  Pt1081    1.0  0.20000  0.70000  0.00000  1.0000
  Pt  Pt1082    1.0  0.20000  0.75000  0.05000  1.0000
  Pt  Pt1083    1.0  0.25000  0.70000  0.05000  1.0000
  Pt  Pt1084    1.0  0.25000  0.75000  0.00000  1.0000
  Pt  Pt1085    1.0  0.20000  0.70000  0.10000  1.0000
  Pt  Pt1086    1.0  0.20000  0.75000  0.15000  1.0000
  Pt  Pt1087    1.0  0.25000  0.70000  0.15000  1.0000
  Pt  Pt1088    1.0  0.25000  0.75000  0.10000  1.0000
  Pt  Pt1089    1.0  0.20000  0.70000  0.20000  1.0000
  Pt  Pt1090    1.0  0.20000  0.75000  0.25000  1.0000
  Pt  Pt1091    1.0  0.25000  0.70000  0.25000  1.0000
  Pt  Pt1092    1.0  0.25000  0.75000  0.20000  1.0000
  Pt  Pt1093    1.0  0.20000  0.70000  0.30000  1.0000
  Pt  Pt1094    1.0  0.20000  0.75000  0.35000  1.0000
  Pt  Pt1095    1.0  0.25000  0.70000  0.35000  1.0000
  Pt  Pt1096    1.0  0.25000  0.75000  0.30000  1.0000
  Pt  Pt1097    1.0  0.20000  0.70000  0.40000  1.0000
  Pt  Pt1098    1.0  0.20000  0.75000  0.45000  1.0000
  Pt  Pt1099    1.0  0.25000  0.70000  0.45000  1.0000
  Pt  Pt1100    1.0  0.25000  0.75000  0.40000  1.0000
  Pt  Pt1101    1.0  0.20000  0.70000  0.50000  1.0000
  Pt  Pt1102    1.0  0.20000  0.75000  0.55000  1.0000
  Pt  Pt1103    1.0  0.25000  0.70000  0.55000  1.0000
  Pt  Pt1104    1.0  0.25000  0.75000  0.50000  1.0000
  Pt  Pt1105    1.0  0.20000  0.70000  0.60000  1.0000
  Pt  Pt1106    1.0  0.20000  0.75000  0.65000  1.0000
  Pt  Pt1107    1.0  0.25000  0.70000  0.65000  1.0000
  Pt  Pt1108    1.0  0.25000  0.75000  0.60000  1.0000
  Pt  Pt1109    1.0  0.20000  0.70000  0.70000  1.0000
  Pt  Pt1110    1.0  0.20000  0.75000  0.75000  1.0000
  Pt  Pt1111    1.0  0.25000  0.70000  0.75000  1.0000
  Pt  Pt1112    1.0  0.25000  0.75000  0.70000  1.0000
  Pt  Pt1113    1.0  0.20000  0.70000  0.80000  1.0000
  Pt  Pt1114    1.0  0.20000  0.75000  0.85000  1.0000
  Pt  Pt1115    1.0  0.25000  0.70000  0.85000  1.0000
  Pt  Pt1116    1.0  0.25000  0.75000  0.80000  1.0000
  Pt  Pt1117    1.0  0.20000  0.70000  0.90000  1.0000
  Pt  Pt1118    1.0  0.20000  0.75000  0.95000  1.0000
  Pt  Pt1119    1.0  0.25000  0.70000  0.95000  1.0000
  Pt  Pt1120    1.0  0.25000  0.75000  0.90000  1.0000
  Pt  Pt1121    1.0  0.20000  0.80000  0.00000  1.0000
  Pt  Pt1122    1.0  0.20000  0.85000  0.05000  1.0000
  Pt  Pt1123    1.0  0.25000  0.80000  0.05000  1.0000
  Pt  Pt1124    1.0  0.25000  0.85000  0.00000  1.0000
  Pt  Pt1125    1.0  0.20000  0.80000  0.10000  1.0000
  Pt  Pt1126    1.0  0.20000  0.85000  0.15000  1.0000
  Pt  Pt1127    1.0  0.25000  0.80000  0.15000  1.0000
  Pt  Pt1128    1.0  0.25000  0.85000  0.10000  1.0000
  Pt  Pt1129    1.0  0.20000  0.80000  0.20000  1.0000
  Pt  Pt1130    1.0  0.20000  0.85000  0.25000  1.0000
  Pt  Pt1131    1.0  0.25000  0.80000  0.25000  1.0000
  Pt  Pt1132    1.0  0.25000  0.85000  0.20000  1.0000
  Pt  Pt1133    1.0  0.20000  0.80000  0.30000  1.0000
  Pt  Pt1134    1.0  0.20000  0.85000  0.35000  1.0000
  Pt  Pt1135    1.0  0.25000  0.80000  0.35000  1.0000
  Pt  Pt1136    1.0  0.25000  0.85000  0.30000  1.0000
  Pt  Pt1137    1.0  0.20000  0.80000  0.40000  1.0000
  Pt  Pt1138    1.0  0.20000  0.85000  0.45000  1.0000
  Pt  Pt1139    1.0  0.25000  0.80000  0.45000  1.0000
  Pt  Pt1140    1.0  0.25000  0.85000  0.40000  1.0000
  Pt  Pt1141    1.0  0.20000  0.80000  0.50000  1.0000
  Pt  Pt1142    1.0  0.20000  0.85000  0.55000  1.0000
  Pt  Pt1143    1.0  0.25000  0.80000  0.55000  1.0000
  Pt  Pt1144    1.0  0.25000  0.85000  0.50000  1.0000
  Pt  Pt1145    1.0  0.20000  0.80000  0.60000  1.0000
  Pt  Pt1146    1.0  0.20000  0.85000  0.65000  1.0000
  Pt  Pt1147    1.0  0.25000  0.80000  0.65000  1.0000
  Pt  Pt1148    1.0  0.25000  0.85000  0.60000  1.0000
  Pt  Pt1149    1.0  0.20000  0.80000  0.70000  1.0000
  Pt  Pt1150    1.0  0.20000  0.85000  0.75000  1.0000
  Pt  Pt1151    1.0  0.25000  0.80000  0.75000  1.0000
  Pt  Pt1152    1.0  0.25000  0.85000  0.70000  1.0000
  Pt  Pt1153    1.0  0.20000  0.80000  0.80000  1.0000
  Pt  Pt1154    1.0  0.20000  0.85000  0.85000  1.0000
  Pt  Pt1155    1.0  0.25000  0.80000  0.85000  1.0000
  Pt  Pt1156    1.0  0.25000  0.85000  0.80000  1.0000
  Pt  Pt1157    1.0  0.20000  0.80000  0.90000  1.0000
  Pt  Pt1158    1.0  0.20000  0.85000  0.95000  1.0000
  Pt  Pt1159    1.0  0.25000  0.80000  0.95000  1.0000
  Pt  Pt1160    1.0  0.25000  0.85000  0.90000  1.0000
  Pt  Pt1161    1.0  0.20000  0.90000  0.00000  1.0000
  Pt  Pt1162    1.0  0.20000  0.95000  0.05000  1.0000
  Pt  Pt1163    1.0  0.25000  0.90000  0.05000  1.0000
  Pt  Pt1164    1.0  0.25000  0.95000  0.00000  1.0000
  Pt  Pt1165    1.0  0.20000  0.90000  0.10000  1.0000
  Pt  Pt1166    1.0  0.20000  0.95000  0.15000  1.0000
  Pt  Pt1167    1.0  0.25000  0.90000  0.15000  1.0000
  Pt  Pt1168    1.0  0.25000  0.95000  0.10000  1.0000
  Pt  Pt1169    1.0  0.20000  0.90000  0.20000  1.0000
  Pt  Pt1170    1.0  0.20000  0.95000  0.25000  1.0000
  Pt  Pt1171    1.0  0.25000  0.90000  0.25000  1.0000
  Pt  Pt1172    1.0  0.25000  0.95000  0.20000  1.0000
  Pt  Pt1173    1.0  0.20000  0.90000  0.30000  1.0000
  Pt  Pt1174    1.0  0.20000  0.95000  0.35000  1.0000
  Pt  Pt1175    1.0  0.25000  0.90000  0.35000  1.0000
  Pt  Pt1176    1.0  0.25000  0.95000  0.30000  1.0000
  Pt  Pt1177    1.0  0.20000  0.90000  0.40000  1.0000
  Pt  Pt1178    1.0  0.20000  0.95000  0.45000  1.0000
  Pt  Pt1179    1.0  0.25000  0.90000  0.45000  1.0000
  Pt  Pt1180    1.0  0.25000  0.95000  0.40000  1.0000
  Pt  Pt1181    1.0  0.20000  0.90000  0.50000  1.0000
  Pt  Pt1182    1.0  0.20000  0.95000  0.55000  1.0000
  Pt  Pt1183    1.0  0.25000  0.90000  0.55000  1.0000
  Pt  Pt1184    1.0  0.25000  0.95000  0.50000  1.0000
  Pt  Pt1185    1.0  0.20000  0.90000  0.60000  1.0000
  Pt  Pt1186    1.0  0.20000  0.95000  0.65000  1.0000
  Pt  Pt1187    1.0  0.25000  0.90000  0.65000  1.0000
  Pt  Pt1188    1.0  0.25000  0.95000  0.60000  1.0000
  Pt  Pt1189    1.0  0.20000  0.90000  0.70000  1.0000
  Pt  Pt1190    1.0  0.20000  0.95000  0.75000  1.0000
  Pt  Pt1191    1.0  0.25000  0.90000  0.75000  1.0000
  Pt  Pt1192    1.0  0.25000  0.95000  0.70000  1.0000
  Pt  Pt1193    1.0  0.20000  0.90000  0.80000  1.0000
  Pt  Pt1194    1.0  0.20000  0.95000  0.85000  1.0000
  Pt  Pt1195    1.0  0.25000  0.90000  0.85000  1.0000
  Pt  Pt1196    1.0  0.25000  0.95000  0.80000  1.0000
  Pt  Pt1197    1.0  0.20000  0.90000  0.90000  1.0000
  Pt  Pt1198    1.0  0.20000  0.95000  0.95000  1.0000
  Pt  Pt1199    1.0  0.25000  0.90000  0.95000  1.0000
  Pt  Pt1200    1.0  0.25000  0.95000  0.90000  1.0000
  Pt  Pt1201    1.0  0.30000  0.00000  0.00000  1.0000
  Pt  Pt1202    1.0  0.30000  0.05000  0.05000  1.0000
  Pt  Pt1203    1.0  0.35000  0.00000  0.05000  1.0000
  Pt  Pt1204    1.0  0.35000  0.05000  0.00000  1.0000
  Pt  Pt1205    1.0  0.30000  0.00000  0.10000  1.0000
  Pt  Pt1206    1.0  0.30000  0.05000  0.15000  1.0000
  Pt  Pt1207    1.0  0.35000  0.00000  0.15000  1.0000
  Pt  Pt1208    1.0  0.35000  0.05000  0.10000  1.0000
  Pt  Pt1209    1.0  0.30000  0.00000  0.20000  1.0000
  Pt  Pt1210    1.0  0.30000  0.05000  0.25000  1.0000
  Pt  Pt1211    1.0  0.35000  0.00000  0.25000  1.0000
  Pt  Pt1212    1.0  0.35000  0.05000  0.20000  1.0000
  Pt  Pt1213    1.0  0.30000  0.00000  0.30000  1.0000
  Pt  Pt1214    1.0  0.30000  0.05000  0.35000  1.0000
  Pt  Pt1215    1.0  0.35000  0.00000  0.35000  1.0000
  Pt  Pt1216    1.0  0.35000  0.05000  0.30000  1.0000
  Pt  Pt1217    1.0  0.30000  0.00000  0.40000  1.0000
  Pt  Pt1218    1.0  0.30000  0.05000  0.45000  1.0000
  Pt  Pt1219    1.0  0.35000  0.00000  0.45000  1.0000
  Pt  Pt1220    1.0  0.35000  0.05000  0.40000  1.0000
  Pt  Pt1221    1.0  0.30000  0.00000  0.50000  1.0000
  Pt  Pt1222    1.0  0.30000  0.05000  0.55000  1.0000
  Pt  Pt1223    1.0  0.35000  0.00000  0.55000  1.0000
  Pt  Pt1224    1.0  0.35000  0.05000  0.50000  1.0000
  Pt  Pt1225    1.0  0.30000  0.00000  0.60000  1.0000
  Pt  Pt1226    1.0  0.30000  0.05000  0.65000  1.0000
  Pt  Pt1227    1.0  0.35000  0.00000  0.65000  1.0000
  Pt  Pt1228    1.0  0.35000  0.05000  0.60000  1.0000
  Pt  Pt1229    1.0  0.30000  0.00000  0.70000  1.0000
  Pt  Pt1230    1.0  0.30000  0.05000  0.75000  1.0000
  Pt  Pt1231    1.0  0.35000  0.00000  0.75000  1.0000
  Pt  Pt1232    1.0  0.35000  0.05000  0.70000  1.0000
  Pt  Pt1233    1.0  0.30000  0.00000  0.80000  1.0000
  Pt  Pt1234    1.0  0.30000  0.05000  0.85000  1.0000
  Pt  Pt1235    1.0  0.35000  0.00000  0.85000  1.0000
  Pt  Pt1236    1.0  0.35000  0.05000  0.80000  1.0000
  Pt  Pt1237    1.0  0.30000  0.00000  0.90000  1.0000
  Pt  Pt1238    1.0  0.30000  0.05000  0.95000  1.0000
  Pt  Pt1239    1.0  0.35000  0.00000  0.95000  1.0000
  Pt  Pt1240    1.0  0.35000  0.05000  0.90000  1.0000
  Pt  Pt1241    1.0  0.30000  0.10000  0.00000  1.0000
  Pt  Pt1242    1.0  0.30000  0.15000  0.05000  1.0000
  Pt  Pt1243    1.0  0.35000  0.10000  0.05000  1.0000
  Pt  Pt1244    1.0  0.35000  0.15000  0.00000  1.0000
  Pt  Pt1245    1.0  0.30000  0.10000  0.10000  1.0000
  Pt  Pt1246    1.0  0.30000  0.15000  0.15000  1.0000
  Pt  Pt1247    1.0  0.35000  0.10000  0.15000  1.0000
  Pt  Pt1248    1.0  0.35000  0.15000  0.10000  1.0000
  Pt  Pt1249    1.0  0.30000  0.10000  0.20000  1.0000
  Pt  Pt1250    1.0  0.30000  0.15000  0.25000  1.0000
  Pt  Pt1251    1.0  0.35000  0.10000  0.25000  1.0000
  Pt  Pt1252    1.0  0.35000  0.15000  0.20000  1.0000
  Pt  Pt1253    1.0  0.30000  0.10000  0.30000  1.0000
  Pt  Pt1254    1.0  0.30000  0.15000  0.35000  1.0000
  Pt  Pt1255    1.0  0.35000  0.10000  0.35000  1.0000
  Pt  Pt1256    1.0  0.35000  0.15000  0.30000  1.0000
  Pt  Pt1257    1.0  0.30000  0.10000  0.40000  1.0000
  Pt  Pt1258    1.0  0.30000  0.15000  0.45000  1.0000
  Pt  Pt1259    1.0  0.35000  0.10000  0.45000  1.0000
  Pt  Pt1260    1.0  0.35000  0.15000  0.40000  1.0000
  Pt  Pt1261    1.0  0.30000  0.10000  0.50000  1.0000
  Pt  Pt1262    1.0  0.30000  0.15000  0.55000  1.0000
  Pt  Pt1263    1.0  0.35000  0.10000  0.55000  1.0000
  Pt  Pt1264    1.0  0.35000  0.15000  0.50000  1.0000
  Pt  Pt1265    1.0  0.30000  0.10000  0.60000  1.0000
  Pt  Pt1266    1.0  0.30000  0.15000  0.65000  1.0000
  Pt  Pt1267    1.0  0.35000  0.10000  0.65000  1.0000
  Pt  Pt1268    1.0  0.35000  0.15000  0.60000  1.0000
  Pt  Pt1269    1.0  0.30000  0.10000  0.70000  1.0000
  Pt  Pt1270    1.0  0.30000  0.15000  0.75000  1.0000
  Pt  Pt1271    1.0  0.35000  0.10000  0.75000  1.0000
  Pt  Pt1272    1.0  0.35000  0.15000  0.70000  1.0000
  Pt  Pt1273    1.0  0.30000  0.10000  0.80000  1.0000
  Pt  Pt1274    1.0  0.30000  0.15000  0.85000  1.0000
  Pt  Pt1275    1.0  0.35000  0.10000  0.85000  1.0000
  Pt  Pt1276    1.0  0.35000  0.15000  0.80000  1.0000
  Pt  Pt1277    1.0  0.30000  0.10000  0.90000  1.0000
  Pt  Pt1278    1.0  0.30000  0.15000  0.95000  1.0000
  Pt  Pt1279    1.0  0.35000  0.10000  0.95000  1.0000
  Pt  Pt1280    1.0  0.35000  0.15000  0.90000  1.0000
  Pt  Pt1281    1.0  0.30000  0.20000  0.00000  1.0000
  Pt  Pt1282    1.0  0.30000  0.25000  0.05000  1.0000
  Pt  Pt1283    1.0  0.35000  0.20000  0.05000  1.0000
  Pt  Pt1284    1.0  0.35000  0.25000  0.00000  1.0000
  Pt  Pt1285    1.0  0.30000  0.20000  0.10000  1.0000
  Pt  Pt1286    1.0  0.30000  0.25000  0.15000  1.0000
  Pt  Pt1287    1.0  0.35000  0.20000  0.15000  1.0000
  Pt  Pt1288    1.0  0.35000  0.25000  0.10000  1.0000
  Pt  Pt1289    1.0  0.30000  0.20000  0.20000  1.0000
  Pt  Pt1290    1.0  0.30000  0.25000  0.25000  1.0000
  Pt  Pt1291    1.0  0.35000  0.20000  0.25000  1.0000
  Pt  Pt1292    1.0  0.35000  0.25000  0.20000  1.0000
  Pt  Pt1293    1.0  0.30000  0.20000  0.30000  1.0000
  Pt  Pt1294    1.0  0.30000  0.25000  0.35000  1.0000
  Pt  Pt1295    1.0  0.35000  0.20000  0.35000  1.0000
  Pt  Pt1296    1.0  0.35000  0.25000  0.30000  1.0000
  Pt  Pt1297    1.0  0.30000  0.20000  0.40000  1.0000
  Pt  Pt1298    1.0  0.30000  0.25000  0.45000  1.0000
  Pt  Pt1299    1.0  0.35000  0.20000  0.45000  1.0000
  Pt  Pt1300    1.0  0.35000  0.25000  0.40000  1.0000
  Pt  Pt1301    1.0  0.30000  0.20000  0.50000  1.0000
  Pt  Pt1302    1.0  0.30000  0.25000  0.55000  1.0000
  Pt  Pt1303    1.0  0.35000  0.20000  0.55000  1.0000
  Pt  Pt1304    1.0  0.35000  0.25000  0.50000  1.0000
  Pt  Pt1305    1.0  0.30000  0.20000  0.60000  1.0000
  Pt  Pt1306    1.0  0.30000  0.25000  0.65000  1.0000
  Pt  Pt1307    1.0  0.35000  0.20000  0.65000  1.0000
  Pt  Pt1308    1.0  0.35000  0.25000  0.60000  1.0000
  Pt  Pt1309    1.0  0.30000  0.20000  0.70000  1.0000
  Pt  Pt1310    1.0  0.30000  0.25000  0.75000  1.0000
  Pt  Pt1311    1.0  0.35000  0.20000  0.75000  1.0000
  Pt  Pt1312    1.0  0.35000  0.25000  0.70000  1.0000
  Pt  Pt1313    1.0  0.30000  0.20000  0.80000  1.0000
  Pt  Pt1314    1.0  0.30000  0.25000  0.85000  1.0000
  Pt  Pt1315    1.0  0.35000  0.20000  0.85000  1.0000
  Pt  Pt1316    1.0  0.35000  0.25000  0.80000  1.0000
  Pt  Pt1317    1.0  0.30000  0.20000  0.90000  1.0000
  Pt  Pt1318    1.0  0.30000  0.25000  0.95000  1.0000
  Pt  Pt1319    1.0  0.35000  0.20000  0.95000  1.0000
  Pt  Pt1320    1.0  0.35000  0.25000  0.90000  1.0000
  Pt  Pt1321    1.0  0.30000  0.30000  0.00000  1.0000
  Pt  Pt1322    1.0  0.30000  0.35000  0.05000  1.0000
  Pt  Pt1323    1.0  0.35000  0.30000  0.05000  1.0000
  Pt  Pt1324    1.0  0.35000  0.35000  0.00000  1.0000
  Pt  Pt1325    1.0  0.30000  0.30000  0.10000  1.0000
  Pt  Pt1326    1.0  0.30000  0.35000  0.15000  1.0000
  Pt  Pt1327    1.0  0.35000  0.30000  0.15000  1.0000
  Pt  Pt1328    1.0  0.35000  0.35000  0.10000  1.0000
  Pt  Pt1329    1.0  0.30000  0.30000  0.20000  1.0000
  Pt  Pt1330    1.0  0.30000  0.35000  0.25000  1.0000
  Pt  Pt1331    1.0  0.35000  0.30000  0.25000  1.0000
  Pt  Pt1332    1.0  0.35000  0.35000  0.20000  1.0000
  Pt  Pt1333    1.0  0.30000  0.30000  0.30000  1.0000
  Pt  Pt1334    1.0  0.30000  0.35000  0.35000  1.0000
  Pt  Pt1335    1.0  0.35000  0.30000  0.35000  1.0000
  Pt  Pt1336    1.0  0.35000  0.35000  0.30000  1.0000
  Pt  Pt1337    1.0  0.30000  0.30000  0.40000  1.0000
  Pt  Pt1338    1.0  0.30000  0.35000  0.45000  1.0000
  Pt  Pt1339    1.0  0.35000  0.30000  0.45000  1.0000
  Pt  Pt1340    1.0  0.35000  0.35000  0.40000  1.0000
  Pt  Pt1341    1.0  0.30000  0.30000  0.50000  1.0000
  Pt  Pt1342    1.0  0.30000  0.35000  0.55000  1.0000
  Pt  Pt1343    1.0  0.35000  0.30000  0.55000  1.0000
  Pt  Pt1344    1.0  0.35000  0.35000  0.50000  1.0000
  Pt  Pt1345    1.0  0.30000  0.30000  0.60000  1.0000
  Pt  Pt1346    1.0  0.30000  0.35000  0.65000  1.0000
  Pt  Pt1347    1.0  0.35000  0.30000  0.65000  1.0000
  Pt  Pt1348    1.0  0.35000  0.35000  0.60000  1.0000
  Pt  Pt1349    1.0  0.30000  0.30000  0.70000  1.0000
  Pt  Pt1350    1.0  0.30000  0.35000  0.75000  1.0000
  Pt  Pt1351    1.0  0.35000  0.30000  0.75000  1.0000
  Pt  Pt1352    1.0  0.35000  0.35000  0.70000  1.0000
  Pt  Pt1353    1.0  0.30000  0.30000  0.80000  1.0000
  Pt  Pt1354    1.0  0.30000  0.35000  0.85000  1.0000
  Pt  Pt1355    1.0  0.35000  0.30000  0.85000  1.0000
  Pt  Pt1356    1.0  0.35000  0.35000  0.80000  1.0000
  Pt  Pt1357    1.0  0.30000  0.30000  0.90000  1.0000
  Pt  Pt1358    1.0  0.30000  0.35000  0.95000  1.0000
  Pt  Pt1359    1.0  0.35000  0.30000  0.95000  1.0000
  Pt  Pt1360    1.0  0.35000  0.35000  0.90000  1.0000
  Pt  Pt1361    1.0  0.30000  0.40000  0.00000  1.0000
  Pt  Pt1362    1.0  0.30000  0.45000  0.05000  1.0000
  Pt  Pt1363    1.0  0.35000  0.40000  0.05000  1.0000
  Pt  Pt1364    1.0  0.35000  0.45000  0.00000  1.0000
  Pt  Pt1365    1.0  0.30000  0.40000  0.10000  1.0000
  Pt  Pt1366    1.0  0.30000  0.45000  0.15000  1.0000
  Pt  Pt1367    1.0  0.35000  0.40000  0.15000  1.0000
  Pt  Pt1368    1.0  0.35000  0.45000  0.10000  1.0000
  Pt  Pt1369    1.0  0.30000  0.40000  0.20000  1.0000
  Pt  Pt1370    1.0  0.30000  0.45000  0.25000  1.0000
  Pt  Pt1371    1.0  0.35000  0.40000  0.25000  1.0000
  Pt  Pt1372    1.0  0.35000  0.45000  0.20000  1.0000
  Pt  Pt1373    1.0  0.30000  0.40000  0.30000  1.0000
  Pt  Pt1374    1.0  0.30000  0.45000  0.35000  1.0000
  Pt  Pt1375    1.0  0.35000  0.40000  0.35000  1.0000
  Pt  Pt1376    1.0  0.35000  0.45000  0.30000  1.0000
  Pt  Pt1377    1.0  0.30000  0.40000  0.40000  1.0000
  Pt  Pt1378    1.0  0.30000  0.45000  0.45000  1.0000
  Pt  Pt1379    1.0  0.35000  0.40000  0.45000  1.0000
  Pt  Pt1380    1.0  0.35000  0.45000  0.40000  1.0000
  Pt  Pt1381    1.0  0.30000  0.40000  0.50000  1.0000
  Pt  Pt1382    1.0  0.30000  0.45000  0.55000  1.0000
  Pt  Pt1383    1.0  0.35000  0.40000  0.55000  1.0000
  Pt  Pt1384    1.0  0.35000  0.45000  0.50000  1.0000
  Pt  Pt1385    1.0  0.30000  0.40000  0.60000  1.0000
  Pt  Pt1386    1.0  0.30000  0.45000  0.65000  1.0000
  Pt  Pt1387    1.0  0.35000  0.40000  0.65000  1.0000
  Pt  Pt1388    1.0  0.35000  0.45000  0.60000  1.0000
  Pt  Pt1389    1.0  0.30000  0.40000  0.70000  1.0000
  Pt  Pt1390    1.0  0.30000  0.45000  0.75000  1.0000
  Pt  Pt1391    1.0  0.35000  0.40000  0.75000  1.0000
  Pt  Pt1392    1.0  0.35000  0.45000  0.70000  1.0000
  Pt  Pt1393    1.0  0.30000  0.40000  0.80000  1.0000
  Pt  Pt1394    1.0  0.30000  0.45000  0.85000  1.0000
  Pt  Pt1395    1.0  0.35000  0.40000  0.85000  1.0000
  Pt  Pt1396    1.0  0.35000  0.45000  0.80000  1.0000
  Pt  Pt1397    1.0  0.30000  0.40000  0.90000  1.0000
  Pt  Pt1398    1.0  0.30000  0.45000  0.95000  1.0000
  Pt  Pt1399    1.0  0.35000  0.40000  0.95000  1.0000
  Pt  Pt1400    1.0  0.35000  0.45000  0.90000  1.0000
  Pt  Pt1401    1.0  0.30000  0.50000  0.00000  1.0000
  Pt  Pt1402    1.0  0.30000  0.55000  0.05000  1.0000
  Pt  Pt1403    1.0  0.35000  0.50000  0.05000  1.0000
  Pt  Pt1404    1.0  0.35000  0.55000  0.00000  1.0000
  Pt  Pt1405    1.0  0.30000  0.50000  0.10000  1.0000
  Pt  Pt1406    1.0  0.30000  0.55000  0.15000  1.0000
  Pt  Pt1407    1.0  0.35000  0.50000  0.15000  1.0000
  Pt  Pt1408    1.0  0.35000  0.55000  0.10000  1.0000
  Pt  Pt1409    1.0  0.30000  0.50000  0.20000  1.0000
  Pt  Pt1410    1.0  0.30000  0.55000  0.25000  1.0000
  Pt  Pt1411    1.0  0.35000  0.50000  0.25000  1.0000
  Pt  Pt1412    1.0  0.35000  0.55000  0.20000  1.0000
  Pt  Pt1413    1.0  0.30000  0.50000  0.30000  1.0000
  Pt  Pt1414    1.0  0.30000  0.55000  0.35000  1.0000
  Pt  Pt1415    1.0  0.35000  0.50000  0.35000  1.0000
  Pt  Pt1416    1.0  0.35000  0.55000  0.30000  1.0000
  Pt  Pt1417    1.0  0.30000  0.50000  0.40000  1.0000
  Pt  Pt1418    1.0  0.30000  0.55000  0.45000  1.0000
  Pt  Pt1419    1.0  0.35000  0.50000  0.45000  1.0000
  Pt  Pt1420    1.0  0.35000  0.55000  0.40000  1.0000
  Pt  Pt1421    1.0  0.30000  0.50000  0.50000  1.0000
  Pt  Pt1422    1.0  0.30000  0.55000  0.55000  1.0000
  Pt  Pt1423    1.0  0.35000  0.50000  0.55000  1.0000
  Pt  Pt1424    1.0  0.35000  0.55000  0.50000  1.0000
  Pt  Pt1425    1.0  0.30000  0.50000  0.60000  1.0000
  Pt  Pt1426    1.0  0.30000  0.55000  0.65000  1.0000
  Pt  Pt1427    1.0  0.35000  0.50000  0.65000  1.0000
  Pt  Pt1428    1.0  0.35000  0.55000  0.60000  1.0000
  Pt  Pt1429    1.0  0.30000  0.50000  0.70000  1.0000
  Pt  Pt1430    1.0  0.30000  0.55000  0.75000  1.0000
  Pt  Pt1431    1.0  0.35000  0.50000  0.75000  1.0000
  Pt  Pt1432    1.0  0.35000  0.55000  0.70000  1.0000
  Pt  Pt1433    1.0  0.30000  0.50000  0.80000  1.0000
  Pt  Pt1434    1.0  0.30000  0.55000  0.85000  1.0000
  Pt  Pt1435    1.0  0.35000  0.50000  0.85000  1.0000
  Pt  Pt1436    1.0  0.35000  0.55000  0.80000  1.0000
  Pt  Pt1437    1.0  0.30000  0.50000  0.90000  1.0000
  Pt  Pt1438    1.0  0.30000  0.55000  0.95000  1.0000
  Pt  Pt1439    1.0  0.35000  0.50000  0.95000  1.0000
  Pt  Pt1440    1.0  0.35000  0.55000  0.90000  1.0000
  Pt  Pt1441    1.0  0.30000  0.60000  0.00000  1.0000
  Pt  Pt1442    1.0  0.30000  0.65000  0.05000  1.0000
  Pt  Pt1443    1.0  0.35000  0.60000  0.05000  1.0000
  Pt  Pt1444    1.0  0.35000  0.65000  0.00000  1.0000
  Pt  Pt1445    1.0  0.30000  0.60000  0.10000  1.0000
  Pt  Pt1446    1.0  0.30000  0.65000  0.15000  1.0000
  Pt  Pt1447    1.0  0.35000  0.60000  0.15000  1.0000
  Pt  Pt1448    1.0  0.35000  0.65000  0.10000  1.0000
  Pt  Pt1449    1.0  0.30000  0.60000  0.20000  1.0000
  Pt  Pt1450    1.0  0.30000  0.65000  0.25000  1.0000
  Pt  Pt1451    1.0  0.35000  0.60000  0.25000  1.0000
  Pt  Pt1452    1.0  0.35000  0.65000  0.20000  1.0000
  Pt  Pt1453    1.0  0.30000  0.60000  0.30000  1.0000
  Pt  Pt1454    1.0  0.30000  0.65000  0.35000  1.0000
  Pt  Pt1455    1.0  0.35000  0.60000  0.35000  1.0000
  Pt  Pt1456    1.0  0.35000  0.65000  0.30000  1.0000
  Pt  Pt1457    1.0  0.30000  0.60000  0.40000  1.0000
  Pt  Pt1458    1.0  0.30000  0.65000  0.45000  1.0000
  Pt  Pt1459    1.0  0.35000  0.60000  0.45000  1.0000
  Pt  Pt1460    1.0  0.35000  0.65000  0.40000  1.0000
  Pt  Pt1461    1.0  0.30000  0.60000  0.50000  1.0000
  Pt  Pt1462    1.0  0.30000  0.65000  0.55000  1.0000
  Pt  Pt1463    1.0  0.35000  0.60000  0.55000  1.0000
  Pt  Pt1464    1.0  0.35000  0.65000  0.50000  1.0000
  Pt  Pt1465    1.0  0.30000  0.60000  0.60000  1.0000
  Pt  Pt1466    1.0  0.30000  0.65000  0.65000  1.0000
  Pt  Pt1467    1.0  0.35000  0.60000  0.65000  1.0000
  Pt  Pt1468    1.0  0.35000  0.65000  0.60000  1.0000
  Pt  Pt1469    1.0  0.30000  0.60000  0.70000  1.0000
  Pt  Pt1470    1.0  0.30000  0.65000  0.75000  1.0000
  Pt  Pt1471    1.0  0.35000  0.60000  0.75000  1.0000
  Pt  Pt1472    1.0  0.35000  0.65000  0.70000  1.0000
  Pt  Pt1473    1.0  0.30000  0.60000  0.80000  1.0000
  Pt  Pt1474    1.0  0.30000  0.65000  0.85000  1.0000
  Pt  Pt1475    1.0  0.35000  0.60000  0.85000  1.0000
  Pt  Pt1476    1.0  0.35000  0.65000  0.80000  1.0000
  Pt  Pt1477    1.0  0.30000  0.60000  0.90000  1.0000
  Pt  Pt1478    1.0  0.30000  0.65000  0.95000  1.0000
  Pt  Pt1479    1.0  0.35000  0.60000  0.95000  1.0000
  Pt  Pt1480    1.0  0.35000  0.65000  0.90000  1.0000
  Pt  Pt1481    1.0  0.30000  0.70000  0.00000  1.0000
  Pt  Pt1482    1.0  0.30000  0.75000  0.05000  1.0000
  Pt  Pt1483    1.0  0.35000  0.70000  0.05000  1.0000
  Pt  Pt1484    1.0  0.35000  0.75000  0.00000  1.0000
  Pt  Pt1485    1.0  0.30000  0.70000  0.10000  1.0000
  Pt  Pt1486    1.0  0.30000  0.75000  0.15000  1.0000
  Pt  Pt1487    1.0  0.35000  0.70000  0.15000  1.0000
  Pt  Pt1488    1.0  0.35000  0.75000  0.10000  1.0000
  Pt  Pt1489    1.0  0.30000  0.70000  0.20000  1.0000
  Pt  Pt1490    1.0  0.30000  0.75000  0.25000  1.0000
  Pt  Pt1491    1.0  0.35000  0.70000  0.25000  1.0000
  Pt  Pt1492    1.0  0.35000  0.75000  0.20000  1.0000
  Pt  Pt1493    1.0  0.30000  0.70000  0.30000  1.0000
  Pt  Pt1494    1.0  0.30000  0.75000  0.35000  1.0000
  Pt  Pt1495    1.0  0.35000  0.70000  0.35000  1.0000
  Pt  Pt1496    1.0  0.35000  0.75000  0.30000  1.0000
  Pt  Pt1497    1.0  0.30000  0.70000  0.40000  1.0000
  Pt  Pt1498    1.0  0.30000  0.75000  0.45000  1.0000
  Pt  Pt1499    1.0  0.35000  0.70000  0.45000  1.0000
  Pt  Pt1500    1.0  0.35000  0.75000  0.40000  1.0000
  Pt  Pt1501    1.0  0.30000  0.70000  0.50000  1.0000
  Pt  Pt1502    1.0  0.30000  0.75000  0.55000  1.0000
  Pt  Pt1503    1.0  0.35000  0.70000  0.55000  1.0000
  Pt  Pt1504    1.0  0.35000  0.75000  0.50000  1.0000
  Pt  Pt1505    1.0  0.30000  0.70000  0.60000  1.0000
  Pt  Pt1506    1.0  0.30000  0.75000  0.65000  1.0000
  Pt  Pt1507    1.0  0.35000  0.70000  0.65000  1.0000
  Pt  Pt1508    1.0  0.35000  0.75000  0.60000  1.0000
  Pt  Pt1509    1.0  0.30000  0.70000  0.70000  1.0000
  Pt  Pt1510    1.0  0.30000  0.75000  0.75000  1.0000
  Pt  Pt1511    1.0  0.35000  0.70000  0.75000  1.0000
  Pt  Pt1512    1.0  0.35000  0.75000  0.70000  1.0000
  Pt  Pt1513    1.0  0.30000  0.70000  0.80000  1.0000
  Pt  Pt1514    1.0  0.30000  0.75000  0.85000  1.0000
  Pt  Pt1515    1.0  0.35000  0.70000  0.85000  1.0000
  Pt  Pt1516    1.0  0.35000  0.75000  0.80000  1.0000
  Pt  Pt1517    1.0  0.30000  0.70000  0.90000  1.0000
  Pt  Pt1518    1.0  0.30000  0.75000  0.95000  1.0000
  Pt  Pt1519    1.0  0.35000  0.70000  0.95000  1.0000
  Pt  Pt1520    1.0  0.35000  0.75000  0.90000  1.0000
  Pt  Pt1521    1.0  0.30000  0.80000  0.00000  1.0000
  Pt  Pt1522    1.0  0.30000  0.85000  0.05000  1.0000
  Pt  Pt1523    1.0  0.35000  0.80000  0.05000  1.0000
  Pt  Pt1524    1.0  0.35000  0.85000  0.00000  1.0000
  Pt  Pt1525    1.0  0.30000  0.80000  0.10000  1.0000
  Pt  Pt1526    1.0  0.30000  0.85000  0.15000  1.0000
  Pt  Pt1527    1.0  0.35000  0.80000  0.15000  1.0000
  Pt  Pt1528    1.0  0.35000  0.85000  0.10000  1.0000
  Pt  Pt1529    1.0  0.30000  0.80000  0.20000  1.0000
  Pt  Pt1530    1.0  0.30000  0.85000  0.25000  1.0000
  Pt  Pt1531    1.0  0.35000  0.80000  0.25000  1.0000
  Pt  Pt1532    1.0  0.35000  0.85000  0.20000  1.0000
  Pt  Pt1533    1.0  0.30000  0.80000  0.30000  1.0000
  Pt  Pt1534    1.0  0.30000  0.85000  0.35000  1.0000
  Pt  Pt1535    1.0  0.35000  0.80000  0.35000  1.0000
  Pt  Pt1536    1.0  0.35000  0.85000  0.30000  1.0000
  Pt  Pt1537    1.0  0.30000  0.80000  0.40000  1.0000
  Pt  Pt1538    1.0  0.30000  0.85000  0.45000  1.0000
  Pt  Pt1539    1.0  0.35000  0.80000  0.45000  1.0000
  Pt  Pt1540    1.0  0.35000  0.85000  0.40000  1.0000
  Pt  Pt1541    1.0  0.30000  0.80000  0.50000  1.0000
  Pt  Pt1542    1.0  0.30000  0.85000  0.55000  1.0000
  Pt  Pt1543    1.0  0.35000  0.80000  0.55000  1.0000
  Pt  Pt1544    1.0  0.35000  0.85000  0.50000  1.0000
  Pt  Pt1545    1.0  0.30000  0.80000  0.60000  1.0000
  Pt  Pt1546    1.0  0.30000  0.85000  0.65000  1.0000
  Pt  Pt1547    1.0  0.35000  0.80000  0.65000  1.0000
  Pt  Pt1548    1.0  0.35000  0.85000  0.60000  1.0000
  Pt  Pt1549    1.0  0.30000  0.80000  0.70000  1.0000
  Pt  Pt1550    1.0  0.30000  0.85000  0.75000  1.0000
  Pt  Pt1551    1.0  0.35000  0.80000  0.75000  1.0000
  Pt  Pt1552    1.0  0.35000  0.85000  0.70000  1.0000
  Pt  Pt1553    1.0  0.30000  0.80000  0.80000  1.0000
  Pt  Pt1554    1.0  0.30000  0.85000  0.85000  1.0000
  Pt  Pt1555    1.0  0.35000  0.80000  0.85000  1.0000
  Pt  Pt1556    1.0  0.35000  0.85000  0.80000  1.0000
  Pt  Pt1557    1.0  0.30000  0.80000  0.90000  1.0000
  Pt  Pt1558    1.0  0.30000  0.85000  0.95000  1.0000
  Pt  Pt1559    1.0  0.35000  0.80000  0.95000  1.0000
  Pt  Pt1560    1.0  0.35000  0.85000  0.90000  1.0000
  Pt  Pt1561    1.0  0.30000  0.90000  0.00000  1.0000
  Pt  Pt1562    1.0  0.30000  0.95000  0.05000  1.0000
  Pt  Pt1563    1.0  0.35000  0.90000  0.05000  1.0000
  Pt  Pt1564    1.0  0.35000  0.95000  0.00000  1.0000
  Pt  Pt1565    1.0  0.30000  0.90000  0.10000  1.0000
  Pt  Pt1566    1.0  0.30000  0.95000  0.15000  1.0000
  Pt  Pt1567    1.0  0.35000  0.90000  0.15000  1.0000
  Pt  Pt1568    1.0  0.35000  0.95000  0.10000  1.0000
  Pt  Pt1569    1.0  0.30000  0.90000  0.20000  1.0000
  Pt  Pt1570    1.0  0.30000  0.95000  0.25000  1.0000
  Pt  Pt1571    1.0  0.35000  0.90000  0.25000  1.0000
  Pt  Pt1572    1.0  0.35000  0.95000  0.20000  1.0000
  Pt  Pt1573    1.0  0.30000  0.90000  0.30000  1.0000
  Pt  Pt1574    1.0  0.30000  0.95000  0.35000  1.0000
  Pt  Pt1575    1.0  0.35000  0.90000  0.35000  1.0000
  Pt  Pt1576    1.0  0.35000  0.95000  0.30000  1.0000
  Pt  Pt1577    1.0  0.30000  0.90000  0.40000  1.0000
  Pt  Pt1578    1.0  0.30000  0.95000  0.45000  1.0000
  Pt  Pt1579    1.0  0.35000  0.90000  0.45000  1.0000
  Pt  Pt1580    1.0  0.35000  0.95000  0.40000  1.0000
  Pt  Pt1581    1.0  0.30000  0.90000  0.50000  1.0000
  Pt  Pt1582    1.0  0.30000  0.95000  0.55000  1.0000
  Pt  Pt1583    1.0  0.35000  0.90000  0.55000  1.0000
  Pt  Pt1584    1.0  0.35000  0.95000  0.50000  1.0000
  Pt  Pt1585    1.0  0.30000  0.90000  0.60000  1.0000
  Pt  Pt1586    1.0  0.30000  0.95000  0.65000  1.0000
  Pt  Pt1587    1.0  0.35000  0.90000  0.65000  1.0000
  Pt  Pt1588    1.0  0.35000  0.95000  0.60000  1.0000
  Pt  Pt1589    1.0  0.30000  0.90000  0.70000  1.0000
  Pt  Pt1590    1.0  0.30000  0.95000  0.75000  1.0000
  Pt  Pt1591    1.0  0.35000  0.90000  0.75000  1.0000
  Pt  Pt1592    1.0  0.35000  0.95000  0.70000  1.0000
  Pt  Pt1593    1.0  0.30000  0.90000  0.80000  1.0000
  Pt  Pt1594    1.0  0.30000  0.95000  0.85000  1.0000
  Pt  Pt1595    1.0  0.35000  0.90000  0.85000  1.0000
  Pt  Pt1596    1.0  0.35000  0.95000  0.80000  1.0000
  Pt  Pt1597    1.0  0.30000  0.90000  0.90000  1.0000
  Pt  Pt1598    1.0  0.30000  0.95000  0.95000  1.0000
  Pt  Pt1599    1.0  0.35000  0.90000  0.95000  1.0000
  Pt  Pt1600    1.0  0.35000  0.95000  0.90000  1.0000
  Pt  Pt1601    1.0  0.40000  0.00000  0.00000  1.0000
  Pt  Pt1602    1.0  0.40000  0.05000  0.05000  1.0000
  Pt  Pt1603    1.0  0.45000  0.00000  0.05000  1.0000
  Pt  Pt1604    1.0  0.45000  0.05000  0.00000  1.0000
  Pt  Pt1605    1.0  0.40000  0.00000  0.10000  1.0000
  Pt  Pt1606    1.0  0.40000  0.05000  0.15000  1.0000
  Pt  Pt1607    1.0  0.45000  0.00000  0.15000  1.0000
  Pt  Pt1608    1.0  0.45000  0.05000  0.10000  1.0000
  Pt  Pt1609    1.0  0.40000  0.00000  0.20000  1.0000
  Pt  Pt1610    1.0  0.40000  0.05000  0.25000  1.0000
  Pt  Pt1611    1.0  0.45000  0.00000  0.25000  1.0000
  Pt  Pt1612    1.0  0.45000  0.05000  0.20000  1.0000
  Pt  Pt1613    1.0  0.40000  0.00000  0.30000  1.0000
  Pt  Pt1614    1.0  0.40000  0.05000  0.35000  1.0000
  Pt  Pt1615    1.0  0.45000  0.00000  0.35000  1.0000
  Pt  Pt1616    1.0  0.45000  0.05000  0.30000  1.0000
  Pt  Pt1617    1.0  0.40000  0.00000  0.40000  1.0000
  Pt  Pt1618    1.0  0.40000  0.05000  0.45000  1.0000
  Pt  Pt1619    1.0  0.45000  0.00000  0.45000  1.0000
  Pt  Pt1620    1.0  0.45000  0.05000  0.40000  1.0000
  Pt  Pt1621    1.0  0.40000  0.00000  0.50000  1.0000
  Pt  Pt1622    1.0  0.40000  0.05000  0.55000  1.0000
  Pt  Pt1623    1.0  0.45000  0.00000  0.55000  1.0000
  Pt  Pt1624    1.0  0.45000  0.05000  0.50000  1.0000
  Pt  Pt1625    1.0  0.40000  0.00000  0.60000  1.0000
  Pt  Pt1626    1.0  0.40000  0.05000  0.65000  1.0000
  Pt  Pt1627    1.0  0.45000  0.00000  0.65000  1.0000
  Pt  Pt1628    1.0  0.45000  0.05000  0.60000  1.0000
  Pt  Pt1629    1.0  0.40000  0.00000  0.70000  1.0000
  Pt  Pt1630    1.0  0.40000  0.05000  0.75000  1.0000
  Pt  Pt1631    1.0  0.45000  0.00000  0.75000  1.0000
  Pt  Pt1632    1.0  0.45000  0.05000  0.70000  1.0000
  Pt  Pt1633    1.0  0.40000  0.00000  0.80000  1.0000
  Pt  Pt1634    1.0  0.40000  0.05000  0.85000  1.0000
  Pt  Pt1635    1.0  0.45000  0.00000  0.85000  1.0000
  Pt  Pt1636    1.0  0.45000  0.05000  0.80000  1.0000
  Pt  Pt1637    1.0  0.40000  0.00000  0.90000  1.0000
  Pt  Pt1638    1.0  0.40000  0.05000  0.95000  1.0000
  Pt  Pt1639    1.0  0.45000  0.00000  0.95000  1.0000
  Pt  Pt1640    1.0  0.45000  0.05000  0.90000  1.0000
  Pt  Pt1641    1.0  0.40000  0.10000  0.00000  1.0000
  Pt  Pt1642    1.0  0.40000  0.15000  0.05000  1.0000
  Pt  Pt1643    1.0  0.45000  0.10000  0.05000  1.0000
  Pt  Pt1644    1.0  0.45000  0.15000  0.00000  1.0000
  Pt  Pt1645    1.0  0.40000  0.10000  0.10000  1.0000
  Pt  Pt1646    1.0  0.40000  0.15000  0.15000  1.0000
  Pt  Pt1647    1.0  0.45000  0.10000  0.15000  1.0000
  Pt  Pt1648    1.0  0.45000  0.15000  0.10000  1.0000
  Pt  Pt1649    1.0  0.40000  0.10000  0.20000  1.0000
  Pt  Pt1650    1.0  0.40000  0.15000  0.25000  1.0000
  Pt  Pt1651    1.0  0.45000  0.10000  0.25000  1.0000
  Pt  Pt1652    1.0  0.45000  0.15000  0.20000  1.0000
  Pt  Pt1653    1.0  0.40000  0.10000  0.30000  1.0000
  Pt  Pt1654    1.0  0.40000  0.15000  0.35000  1.0000
  Pt  Pt1655    1.0  0.45000  0.10000  0.35000  1.0000
  Pt  Pt1656    1.0  0.45000  0.15000  0.30000  1.0000
  Pt  Pt1657    1.0  0.40000  0.10000  0.40000  1.0000
  Pt  Pt1658    1.0  0.40000  0.15000  0.45000  1.0000
  Pt  Pt1659    1.0  0.45000  0.10000  0.45000  1.0000
  Pt  Pt1660    1.0  0.45000  0.15000  0.40000  1.0000
  Pt  Pt1661    1.0  0.40000  0.10000  0.50000  1.0000
  Pt  Pt1662    1.0  0.40000  0.15000  0.55000  1.0000
  Pt  Pt1663    1.0  0.45000  0.10000  0.55000  1.0000
  Pt  Pt1664    1.0  0.45000  0.15000  0.50000  1.0000
  Pt  Pt1665    1.0  0.40000  0.10000  0.60000  1.0000
  Pt  Pt1666    1.0  0.40000  0.15000  0.65000  1.0000
  Pt  Pt1667    1.0  0.45000  0.10000  0.65000  1.0000
  Pt  Pt1668    1.0  0.45000  0.15000  0.60000  1.0000
  Pt  Pt1669    1.0  0.40000  0.10000  0.70000  1.0000
  Pt  Pt1670    1.0  0.40000  0.15000  0.75000  1.0000
  Pt  Pt1671    1.0  0.45000  0.10000  0.75000  1.0000
  Pt  Pt1672    1.0  0.45000  0.15000  0.70000  1.0000
  Pt  Pt1673    1.0  0.40000  0.10000  0.80000  1.0000
  Pt  Pt1674    1.0  0.40000  0.15000  0.85000  1.0000
  Pt  Pt1675    1.0  0.45000  0.10000  0.85000  1.0000
  Pt  Pt1676    1.0  0.45000  0.15000  0.80000  1.0000
  Pt  Pt1677    1.0  0.40000  0.10000  0.90000  1.0000
  Pt  Pt1678    1.0  0.40000  0.15000  0.95000  1.0000
  Pt  Pt1679    1.0  0.45000  0.10000  0.95000  1.0000
  Pt  Pt1680    1.0  0.45000  0.15000  0.90000  1.0000
  Pt  Pt1681    1.0  0.40000  0.20000  0.00000  1.0000
  Pt  Pt1682    1.0  0.40000  0.25000  0.05000  1.0000
  Pt  Pt1683    1.0  0.45000  0.20000  0.05000  1.0000
  Pt  Pt1684    1.0  0.45000  0.25000  0.00000  1.0000
  Pt  Pt1685    1.0  0.40000  0.20000  0.10000  1.0000
  Pt  Pt1686    1.0  0.40000  0.25000  0.15000  1.0000
  Pt  Pt1687    1.0  0.45000  0.20000  0.15000  1.0000
  Pt  Pt1688    1.0  0.45000  0.25000  0.10000  1.0000
  Pt  Pt1689    1.0  0.40000  0.20000  0.20000  1.0000
  Pt  Pt1690    1.0  0.40000  0.25000  0.25000  1.0000
  Pt  Pt1691    1.0  0.45000  0.20000  0.25000  1.0000
  Pt  Pt1692    1.0  0.45000  0.25000  0.20000  1.0000
  Pt  Pt1693    1.0  0.40000  0.20000  0.30000  1.0000
  Pt  Pt1694    1.0  0.40000  0.25000  0.35000  1.0000
  Pt  Pt1695    1.0  0.45000  0.20000  0.35000  1.0000
  Pt  Pt1696    1.0  0.45000  0.25000  0.30000  1.0000
  Pt  Pt1697    1.0  0.40000  0.20000  0.40000  1.0000
  Pt  Pt1698    1.0  0.40000  0.25000  0.45000  1.0000
  Pt  Pt1699    1.0  0.45000  0.20000  0.45000  1.0000
  Pt  Pt1700    1.0  0.45000  0.25000  0.40000  1.0000
  Pt  Pt1701    1.0  0.40000  0.20000  0.50000  1.0000
  Pt  Pt1702    1.0  0.40000  0.25000  0.55000  1.0000
  Pt  Pt1703    1.0  0.45000  0.20000  0.55000  1.0000
  Pt  Pt1704    1.0  0.45000  0.25000  0.50000  1.0000
  Pt  Pt1705    1.0  0.40000  0.20000  0.60000  1.0000
  Pt  Pt1706    1.0  0.40000  0.25000  0.65000  1.0000
  Pt  Pt1707    1.0  0.45000  0.20000  0.65000  1.0000
  Pt  Pt1708    1.0  0.45000  0.25000  0.60000  1.0000
  Pt  Pt1709    1.0  0.40000  0.20000  0.70000  1.0000
  Pt  Pt1710    1.0  0.40000  0.25000  0.75000  1.0000
  Pt  Pt1711    1.0  0.45000  0.20000  0.75000  1.0000
  Pt  Pt1712    1.0  0.45000  0.25000  0.70000  1.0000
  Pt  Pt1713    1.0  0.40000  0.20000  0.80000  1.0000
  Pt  Pt1714    1.0  0.40000  0.25000  0.85000  1.0000
  Pt  Pt1715    1.0  0.45000  0.20000  0.85000  1.0000
  Pt  Pt1716    1.0  0.45000  0.25000  0.80000  1.0000
  Pt  Pt1717    1.0  0.40000  0.20000  0.90000  1.0000
  Pt  Pt1718    1.0  0.40000  0.25000  0.95000  1.0000
  Pt  Pt1719    1.0  0.45000  0.20000  0.95000  1.0000
  Pt  Pt1720    1.0  0.45000  0.25000  0.90000  1.0000
  Pt  Pt1721    1.0  0.40000  0.30000  0.00000  1.0000
  Pt  Pt1722    1.0  0.40000  0.35000  0.05000  1.0000
  Pt  Pt1723    1.0  0.45000  0.30000  0.05000  1.0000
  Pt  Pt1724    1.0  0.45000  0.35000  0.00000  1.0000
  Pt  Pt1725    1.0  0.40000  0.30000  0.10000  1.0000
  Pt  Pt1726    1.0  0.40000  0.35000  0.15000  1.0000
  Pt  Pt1727    1.0  0.45000  0.30000  0.15000  1.0000
  Pt  Pt1728    1.0  0.45000  0.35000  0.10000  1.0000
  Pt  Pt1729    1.0  0.40000  0.30000  0.20000  1.0000
  Pt  Pt1730    1.0  0.40000  0.35000  0.25000  1.0000
  Pt  Pt1731    1.0  0.45000  0.30000  0.25000  1.0000
  Pt  Pt1732    1.0  0.45000  0.35000  0.20000  1.0000
  Pt  Pt1733    1.0  0.40000  0.30000  0.30000  1.0000
  Pt  Pt1734    1.0  0.40000  0.35000  0.35000  1.0000
  Pt  Pt1735    1.0  0.45000  0.30000  0.35000  1.0000
  Pt  Pt1736    1.0  0.45000  0.35000  0.30000  1.0000
  Pt  Pt1737    1.0  0.40000  0.30000  0.40000  1.0000
  Pt  Pt1738    1.0  0.40000  0.35000  0.45000  1.0000
  Pt  Pt1739    1.0  0.45000  0.30000  0.45000  1.0000
  Pt  Pt1740    1.0  0.45000  0.35000  0.40000  1.0000
  Pt  Pt1741    1.0  0.40000  0.30000  0.50000  1.0000
  Pt  Pt1742    1.0  0.40000  0.35000  0.55000  1.0000
  Pt  Pt1743    1.0  0.45000  0.30000  0.55000  1.0000
  Pt  Pt1744    1.0  0.45000  0.35000  0.50000  1.0000
  Pt  Pt1745    1.0  0.40000  0.30000  0.60000  1.0000
  Pt  Pt1746    1.0  0.40000  0.35000  0.65000  1.0000
  Pt  Pt1747    1.0  0.45000  0.30000  0.65000  1.0000
  Pt  Pt1748    1.0  0.45000  0.35000  0.60000  1.0000
  Pt  Pt1749    1.0  0.40000  0.30000  0.70000  1.0000
  Pt  Pt1750    1.0  0.40000  0.35000  0.75000  1.0000
  Pt  Pt1751    1.0  0.45000  0.30000  0.75000  1.0000
  Pt  Pt1752    1.0  0.45000  0.35000  0.70000  1.0000
  Pt  Pt1753    1.0  0.40000  0.30000  0.80000  1.0000
  Pt  Pt1754    1.0  0.40000  0.35000  0.85000  1.0000
  Pt  Pt1755    1.0  0.45000  0.30000  0.85000  1.0000
  Pt  Pt1756    1.0  0.45000  0.35000  0.80000  1.0000
  Pt  Pt1757    1.0  0.40000  0.30000  0.90000  1.0000
  Pt  Pt1758    1.0  0.40000  0.35000  0.95000  1.0000
  Pt  Pt1759    1.0  0.45000  0.30000  0.95000  1.0000
  Pt  Pt1760    1.0  0.45000  0.35000  0.90000  1.0000
  Pt  Pt1761    1.0  0.40000  0.40000  0.00000  1.0000
  Pt  Pt1762    1.0  0.40000  0.45000  0.05000  1.0000
  Pt  Pt1763    1.0  0.45000  0.40000  0.05000  1.0000
  Pt  Pt1764    1.0  0.45000  0.45000  0.00000  1.0000
  Pt  Pt1765    1.0  0.40000  0.40000  0.10000  1.0000
  Pt  Pt1766    1.0  0.40000  0.45000  0.15000  1.0000
  Pt  Pt1767    1.0  0.45000  0.40000  0.15000  1.0000
  Pt  Pt1768    1.0  0.45000  0.45000  0.10000  1.0000
  Pt  Pt1769    1.0  0.40000  0.40000  0.20000  1.0000
  Pt  Pt1770    1.0  0.40000  0.45000  0.25000  1.0000
  Pt  Pt1771    1.0  0.45000  0.40000  0.25000  1.0000
  Pt  Pt1772    1.0  0.45000  0.45000  0.20000  1.0000
  Pt  Pt1773    1.0  0.40000  0.40000  0.30000  1.0000
  Pt  Pt1774    1.0  0.40000  0.45000  0.35000  1.0000
  Pt  Pt1775    1.0  0.45000  0.40000  0.35000  1.0000
  Pt  Pt1776    1.0  0.45000  0.45000  0.30000  1.0000
  Pt  Pt1777    1.0  0.40000  0.40000  0.40000  1.0000
  Pt  Pt1778    1.0  0.40000  0.45000  0.45000  1.0000
  Pt  Pt1779    1.0  0.45000  0.40000  0.45000  1.0000
  Pt  Pt1780    1.0  0.45000  0.45000  0.40000  1.0000
  Pt  Pt1781    1.0  0.40000  0.40000  0.50000  1.0000
  Pt  Pt1782    1.0  0.40000  0.45000  0.55000  1.0000
  Pt  Pt1783    1.0  0.45000  0.40000  0.55000  1.0000
  Pt  Pt1784    1.0  0.45000  0.45000  0.50000  1.0000
  Pt  Pt1785    1.0  0.40000  0.40000  0.60000  1.0000
  Pt  Pt1786    1.0  0.40000  0.45000  0.65000  1.0000
  Pt  Pt1787    1.0  0.45000  0.40000  0.65000  1.0000
  Pt  Pt1788    1.0  0.45000  0.45000  0.60000  1.0000
  Pt  Pt1789    1.0  0.40000  0.40000  0.70000  1.0000
  Pt  Pt1790    1.0  0.40000  0.45000  0.75000  1.0000
  Pt  Pt1791    1.0  0.45000  0.40000  0.75000  1.0000
  Pt  Pt1792    1.0  0.45000  0.45000  0.70000  1.0000
  Pt  Pt1793    1.0  0.40000  0.40000  0.80000  1.0000
  Pt  Pt1794    1.0  0.40000  0.45000  0.85000  1.0000
  Pt  Pt1795    1.0  0.45000  0.40000  0.85000  1.0000
  Pt  Pt1796    1.0  0.45000  0.45000  0.80000  1.0000
  Pt  Pt1797    1.0  0.40000  0.40000  0.90000  1.0000
  Pt  Pt1798    1.0  0.40000  0.45000  0.95000  1.0000
  Pt  Pt1799    1.0  0.45000  0.40000  0.95000  1.0000
  Pt  Pt1800    1.0  0.45000  0.45000  0.90000  1.0000
  Pt  Pt1801    1.0  0.40000  0.50000  0.00000  1.0000
  Pt  Pt1802    1.0  0.40000  0.55000  0.05000  1.0000
  Pt  Pt1803    1.0  0.45000  0.50000  0.05000  1.0000
  Pt  Pt1804    1.0  0.45000  0.55000  0.00000  1.0000
  Pt  Pt1805    1.0  0.40000  0.50000  0.10000  1.0000
  Pt  Pt1806    1.0  0.40000  0.55000  0.15000  1.0000
  Pt  Pt1807    1.0  0.45000  0.50000  0.15000  1.0000
  Pt  Pt1808    1.0  0.45000  0.55000  0.10000  1.0000
  Pt  Pt1809    1.0  0.40000  0.50000  0.20000  1.0000
  Pt  Pt1810    1.0  0.40000  0.55000  0.25000  1.0000
  Pt  Pt1811    1.0  0.45000  0.50000  0.25000  1.0000
  Pt  Pt1812    1.0  0.45000  0.55000  0.20000  1.0000
  Pt  Pt1813    1.0  0.40000  0.50000  0.30000  1.0000
  Pt  Pt1814    1.0  0.40000  0.55000  0.35000  1.0000
  Pt  Pt1815    1.0  0.45000  0.50000  0.35000  1.0000
  Pt  Pt1816    1.0  0.45000  0.55000  0.30000  1.0000
  Pt  Pt1817    1.0  0.40000  0.50000  0.40000  1.0000
  Pt  Pt1818    1.0  0.40000  0.55000  0.45000  1.0000
  Pt  Pt1819    1.0  0.45000  0.50000  0.45000  1.0000
  Pt  Pt1820    1.0  0.45000  0.55000  0.40000  1.0000
  Pt  Pt1821    1.0  0.40000  0.50000  0.50000  1.0000
  Pt  Pt1822    1.0  0.40000  0.55000  0.55000  1.0000
  Pt  Pt1823    1.0  0.45000  0.50000  0.55000  1.0000
  Pt  Pt1824    1.0  0.45000  0.55000  0.50000  1.0000
  Pt  Pt1825    1.0  0.40000  0.50000  0.60000  1.0000
  Pt  Pt1826    1.0  0.40000  0.55000  0.65000  1.0000
  Pt  Pt1827    1.0  0.45000  0.50000  0.65000  1.0000
  Pt  Pt1828    1.0  0.45000  0.55000  0.60000  1.0000
  Pt  Pt1829    1.0  0.40000  0.50000  0.70000  1.0000
  Pt  Pt1830    1.0  0.40000  0.55000  0.75000  1.0000
  Pt  Pt1831    1.0  0.45000  0.50000  0.75000  1.0000
  Pt  Pt1832    1.0  0.45000  0.55000  0.70000  1.0000
  Pt  Pt1833    1.0  0.40000  0.50000  0.80000  1.0000
  Pt  Pt1834    1.0  0.40000  0.55000  0.85000  1.0000
  Pt  Pt1835    1.0  0.45000  0.50000  0.85000  1.0000
  Pt  Pt1836    1.0  0.45000  0.55000  0.80000  1.0000
  Pt  Pt1837    1.0  0.40000  0.50000  0.90000  1.0000
  Pt  Pt1838    1.0  0.40000  0.55000  0.95000  1.0000
  Pt  Pt1839    1.0  0.45000  0.50000  0.95000  1.0000
  Pt  Pt1840    1.0  0.45000  0.55000  0.90000  1.0000
  Pt  Pt1841    1.0  0.40000  0.60000  0.00000  1.0000
  Pt  Pt1842    1.0  0.40000  0.65000  0.05000  1.0000
  Pt  Pt1843    1.0  0.45000  0.60000  0.05000  1.0000
  Pt  Pt1844    1.0  0.45000  0.65000  0.00000  1.0000
  Pt  Pt1845    1.0  0.40000  0.60000  0.10000  1.0000
  Pt  Pt1846    1.0  0.40000  0.65000  0.15000  1.0000
  Pt  Pt1847    1.0  0.45000  0.60000  0.15000  1.0000
  Pt  Pt1848    1.0  0.45000  0.65000  0.10000  1.0000
  Pt  Pt1849    1.0  0.40000  0.60000  0.20000  1.0000
  Pt  Pt1850    1.0  0.40000  0.65000  0.25000  1.0000
  Pt  Pt1851    1.0  0.45000  0.60000  0.25000  1.0000
  Pt  Pt1852    1.0  0.45000  0.65000  0.20000  1.0000
  Pt  Pt1853    1.0  0.40000  0.60000  0.30000  1.0000
  Pt  Pt1854    1.0  0.40000  0.65000  0.35000  1.0000
  Pt  Pt1855    1.0  0.45000  0.60000  0.35000  1.0000
  Pt  Pt1856    1.0  0.45000  0.65000  0.30000  1.0000
  Pt  Pt1857    1.0  0.40000  0.60000  0.40000  1.0000
  Pt  Pt1858    1.0  0.40000  0.65000  0.45000  1.0000
  Pt  Pt1859    1.0  0.45000  0.60000  0.45000  1.0000
  Pt  Pt1860    1.0  0.45000  0.65000  0.40000  1.0000
  Pt  Pt1861    1.0  0.40000  0.60000  0.50000  1.0000
  Pt  Pt1862    1.0  0.40000  0.65000  0.55000  1.0000
  Pt  Pt1863    1.0  0.45000  0.60000  0.55000  1.0000
  Pt  Pt1864    1.0  0.45000  0.65000  0.50000  1.0000
  Pt  Pt1865    1.0  0.40000  0.60000  0.60000  1.0000
  Pt  Pt1866    1.0  0.40000  0.65000  0.65000  1.0000
  Pt  Pt1867    1.0  0.45000  0.60000  0.65000  1.0000
  Pt  Pt1868    1.0  0.45000  0.65000  0.60000  1.0000
  Pt  Pt1869    1.0  0.40000  0.60000  0.70000  1.0000
  Pt  Pt1870    1.0  0.40000  0.65000  0.75000  1.0000
  Pt  Pt1871    1.0  0.45000  0.60000  0.75000  1.0000
  Pt  Pt1872    1.0  0.45000  0.65000  0.70000  1.0000
  Pt  Pt1873    1.0  0.40000  0.60000  0.80000  1.0000
  Pt  Pt1874    1.0  0.40000  0.65000  0.85000  1.0000
  Pt  Pt1875    1.0  0.45000  0.60000  0.85000  1.0000
  Pt  Pt1876    1.0  0.45000  0.65000  0.80000  1.0000
  Pt  Pt1877    1.0  0.40000  0.60000  0.90000  1.0000
  Pt  Pt1878    1.0  0.40000  0.65000  0.95000  1.0000
  Pt  Pt1879    1.0  0.45000  0.60000  0.95000  1.0000
  Pt  Pt1880    1.0  0.45000  0.65000  0.90000  1.0000
  Pt  Pt1881    1.0  0.40000  0.70000  0.00000  1.0000
  Pt  Pt1882    1.0  0.40000  0.75000  0.05000  1.0000
  Pt  Pt1883    1.0  0.45000  0.70000  0.05000  1.0000
  Pt  Pt1884    1.0  0.45000  0.75000  0.00000  1.0000
  Pt  Pt1885    1.0  0.40000  0.70000  0.10000  1.0000
  Pt  Pt1886    1.0  0.40000  0.75000  0.15000  1.0000
  Pt  Pt1887    1.0  0.45000  0.70000  0.15000  1.0000
  Pt  Pt1888    1.0  0.45000  0.75000  0.10000  1.0000
  Pt  Pt1889    1.0  0.40000  0.70000  0.20000  1.0000
  Pt  Pt1890    1.0  0.40000  0.75000  0.25000  1.0000
  Pt  Pt1891    1.0  0.45000  0.70000  0.25000  1.0000
  Pt  Pt1892    1.0  0.45000  0.75000  0.20000  1.0000
  Pt  Pt1893    1.0  0.40000  0.70000  0.30000  1.0000
  Pt  Pt1894    1.0  0.40000  0.75000  0.35000  1.0000
  Pt  Pt1895    1.0  0.45000  0.70000  0.35000  1.0000
  Pt  Pt1896    1.0  0.45000  0.75000  0.30000  1.0000
  Pt  Pt1897    1.0  0.40000  0.70000  0.40000  1.0000
  Pt  Pt1898    1.0  0.40000  0.75000  0.45000  1.0000
  Pt  Pt1899    1.0  0.45000  0.70000  0.45000  1.0000
  Pt  Pt1900    1.0  0.45000  0.75000  0.40000  1.0000
  Pt  Pt1901    1.0  0.40000  0.70000  0.50000  1.0000
  Pt  Pt1902    1.0  0.40000  0.75000  0.55000  1.0000
  Pt  Pt1903    1.0  0.45000  0.70000  0.55000  1.0000
  Pt  Pt1904    1.0  0.45000  0.75000  0.50000  1.0000
  Pt  Pt1905    1.0  0.40000  0.70000  0.60000  1.0000
  Pt  Pt1906    1.0  0.40000  0.75000  0.65000  1.0000
  Pt  Pt1907    1.0  0.45000  0.70000  0.65000  1.0000
  Pt  Pt1908    1.0  0.45000  0.75000  0.60000  1.0000
  Pt  Pt1909    1.0  0.40000  0.70000  0.70000  1.0000
  Pt  Pt1910    1.0  0.40000  0.75000  0.75000  1.0000
  Pt  Pt1911    1.0  0.45000  0.70000  0.75000  1.0000
  Pt  Pt1912    1.0  0.45000  0.75000  0.70000  1.0000
  Pt  Pt1913    1.0  0.40000  0.70000  0.80000  1.0000
  Pt  Pt1914    1.0  0.40000  0.75000  0.85000  1.0000
  Pt  Pt1915    1.0  0.45000  0.70000  0.85000  1.0000
  Pt  Pt1916    1.0  0.45000  0.75000  0.80000  1.0000
  Pt  Pt1917    1.0  0.40000  0.70000  0.90000  1.0000
  Pt  Pt1918    1.0  0.40000  0.75000  0.95000  1.0000
  Pt  Pt1919    1.0  0.45000  0.70000  0.95000  1.0000
  Pt  Pt1920    1.0  0.45000  0.75000  0.90000  1.0000
  Pt  Pt1921    1.0  0.40000  0.80000  0.00000  1.0000
  Pt  Pt1922    1.0  0.40000  0.85000  0.05000  1.0000
  Pt  Pt1923    1.0  0.45000  0.80000  0.05000  1.0000
  Pt  Pt1924    1.0  0.45000  0.85000  0.00000  1.0000
  Pt  Pt1925    1.0  0.40000  0.80000  0.10000  1.0000
  Pt  Pt1926    1.0  0.40000  0.85000  0.15000  1.0000
  Pt  Pt1927    1.0  0.45000  0.80000  0.15000  1.0000
  Pt  Pt1928    1.0  0.45000  0.85000  0.10000  1.0000
  Pt  Pt1929    1.0  0.40000  0.80000  0.20000  1.0000
  Pt  Pt1930    1.0  0.40000  0.85000  0.25000  1.0000
  Pt  Pt1931    1.0  0.45000  0.80000  0.25000  1.0000
  Pt  Pt1932    1.0  0.45000  0.85000  0.20000  1.0000
  Pt  Pt1933    1.0  0.40000  0.80000  0.30000  1.0000
  Pt  Pt1934    1.0  0.40000  0.85000  0.35000  1.0000
  Pt  Pt1935    1.0  0.45000  0.80000  0.35000  1.0000
  Pt  Pt1936    1.0  0.45000  0.85000  0.30000  1.0000
  Pt  Pt1937    1.0  0.40000  0.80000  0.40000  1.0000
  Pt  Pt1938    1.0  0.40000  0.85000  0.45000  1.0000
  Pt  Pt1939    1.0  0.45000  0.80000  0.45000  1.0000
  Pt  Pt1940    1.0  0.45000  0.85000  0.40000  1.0000
  Pt  Pt1941    1.0  0.40000  0.80000  0.50000  1.0000
  Pt  Pt1942    1.0  0.40000  0.85000  0.55000  1.0000
  Pt  Pt1943    1.0  0.45000  0.80000  0.55000  1.0000
  Pt  Pt1944    1.0  0.45000  0.85000  0.50000  1.0000
  Pt  Pt1945    1.0  0.40000  0.80000  0.60000  1.0000
  Pt  Pt1946    1.0  0.40000  0.85000  0.65000  1.0000
  Pt  Pt1947    1.0  0.45000  0.80000  0.65000  1.0000
  Pt  Pt1948    1.0  0.45000  0.85000  0.60000  1.0000
  Pt  Pt1949    1.0  0.40000  0.80000  0.70000  1.0000
  Pt  Pt1950    1.0  0.40000  0.85000  0.75000  1.0000
  Pt  Pt1951    1.0  0.45000  0.80000  0.75000  1.0000
  Pt  Pt1952    1.0  0.45000  0.85000  0.70000  1.0000
  Pt  Pt1953    1.0  0.40000  0.80000  0.80000  1.0000
  Pt  Pt1954    1.0  0.40000  0.85000  0.85000  1.0000
  Pt  Pt1955    1.0  0.45000  0.80000  0.85000  1.0000
  Pt  Pt1956    1.0  0.45000  0.85000  0.80000  1.0000
  Pt  Pt1957    1.0  0.40000  0.80000  0.90000  1.0000
  Pt  Pt1958    1.0  0.40000  0.85000  0.95000  1.0000
  Pt  Pt1959    1.0  0.45000  0.80000  0.95000  1.0000
  Pt  Pt1960    1.0  0.45000  0.85000  0.90000  1.0000
  Pt  Pt1961    1.0  0.40000  0.90000  0.00000  1.0000
  Pt  Pt1962    1.0  0.40000  0.95000  0.05000  1.0000
  Pt  Pt1963    1.0  0.45000  0.90000  0.05000  1.0000
  Pt  Pt1964    1.0  0.45000  0.95000  0.00000  1.0000
  Pt  Pt1965    1.0  0.40000  0.90000  0.10000  1.0000
  Pt  Pt1966    1.0  0.40000  0.95000  0.15000  1.0000
  Pt  Pt1967    1.0  0.45000  0.90000  0.15000  1.0000
  Pt  Pt1968    1.0  0.45000  0.95000  0.10000  1.0000
  Pt  Pt1969    1.0  0.40000  0.90000  0.20000  1.0000
  Pt  Pt1970    1.0  0.40000  0.95000  0.25000  1.0000
  Pt  Pt1971    1.0  0.45000  0.90000  0.25000  1.0000
  Pt  Pt1972    1.0  0.45000  0.95000  0.20000  1.0000
  Pt  Pt1973    1.0  0.40000  0.90000  0.30000  1.0000
  Pt  Pt1974    1.0  0.40000  0.95000  0.35000  1.0000
  Pt  Pt1975    1.0  0.45000  0.90000  0.35000  1.0000
  Pt  Pt1976    1.0  0.45000  0.95000  0.30000  1.0000
  Pt  Pt1977    1.0  0.40000  0.90000  0.40000  1.0000
  Pt  Pt1978    1.0  0.40000  0.95000  0.45000  1.0000
  Pt  Pt1979    1.0  0.45000  0.90000  0.45000  1.0000
  Pt  Pt1980    1.0  0.45000  0.95000  0.40000  1.0000
  Pt  Pt1981    1.0  0.40000  0.90000  0.50000  1.0000
  Pt  Pt1982    1.0  0.40000  0.95000  0.55000  1.0000
  Pt  Pt1983    1.0  0.45000  0.90000  0.55000  1.0000
  Pt  Pt1984    1.0  0.45000  0.95000  0.50000  1.0000
  Pt  Pt1985    1.0  0.40000  0.90000  0.60000  1.0000
  Pt  Pt1986    1.0  0.40000  0.95000  0.65000  1.0000
  Pt  Pt1987    1.0  0.45000  0.90000  0.65000  1.0000
  Pt  Pt1988    1.0  0.45000  0.95000  0.60000  1.0000
  Pt  Pt1989    1.0  0.40000  0.90000  0.70000  1.0000
  Pt  Pt1990    1.0  0.40000  0.95000  0.75000  1.0000
  Pt  Pt1991    1.0  0.45000  0.90000  0.75000  1.0000
  Pt  Pt1992    1.0  0.45000  0.95000  0.70000  1.0000
  Pt  Pt1993    1.0  0.40000  0.90000  0.80000  1.0000
  Pt  Pt1994    1.0  0.40000  0.95000  0.85000  1.0000
  Pt  Pt1995    1.0  0.45000  0.90000  0.85000  1.0000
  Pt  Pt1996    1.0  0.45000  0.95000  0.80000  1.0000
  Pt  Pt1997    1.0  0.40000  0.90000  0.90000  1.0000
  Pt  Pt1998    1.0  0.40000  0.95000  0.95000  1.0000
  Pt  Pt1999    1.0  0.45000  0.90000  0.95000  1.0000
  Pt  Pt2000    1.0  0.45000  0.95000  0.90000  1.0000
  Pt  Pt2001    1.0  0.50000  0.00000  0.00000  1.0000
  Pt  Pt2002    1.0  0.50000  0.05000  0.05000  1.0000
  Pt  Pt2003    1.0  0.55000  0.00000  0.05000  1.0000
  Pt  Pt2004    1.0  0.55000  0.05000  0.00000  1.0000
  Pt  Pt2005    1.0  0.50000  0.00000  0.10000  1.0000
  Pt  Pt2006    1.0  0.50000  0.05000  0.15000  1.0000
  Pt  Pt2007    1.0  0.55000  0.00000  0.15000  1.0000
  Pt  Pt2008    1.0  0.55000  0.05000  0.10000  1.0000
  Pt  Pt2009    1.0  0.50000  0.00000  0.20000  1.0000
  Pt  Pt2010    1.0  0.50000  0.05000  0.25000  1.0000
  Pt  Pt2011    1.0  0.55000  0.00000  0.25000  1.0000
  Pt  Pt2012    1.0  0.55000  0.05000  0.20000  1.0000
  Pt  Pt2013    1.0  0.50000  0.00000  0.30000  1.0000
  Pt  Pt2014    1.0  0.50000  0.05000  0.35000  1.0000
  Pt  Pt2015    1.0  0.55000  0.00000  0.35000  1.0000
  Pt  Pt2016    1.0  0.55000  0.05000  0.30000  1.0000
  Pt  Pt2017    1.0  0.50000  0.00000  0.40000  1.0000
  Pt  Pt2018    1.0  0.50000  0.05000  0.45000  1.0000
  Pt  Pt2019    1.0  0.55000  0.00000  0.45000  1.0000
  Pt  Pt2020    1.0  0.55000  0.05000  0.40000  1.0000
  Pt  Pt2021    1.0  0.50000  0.00000  0.50000  1.0000
  Pt  Pt2022    1.0  0.50000  0.05000  0.55000  1.0000
  Pt  Pt2023    1.0  0.55000  0.00000  0.55000  1.0000
  Pt  Pt2024    1.0  0.55000  0.05000  0.50000  1.0000
  Pt  Pt2025    1.0  0.50000  0.00000  0.60000  1.0000
  Pt  Pt2026    1.0  0.50000  0.05000  0.65000  1.0000
  Pt  Pt2027    1.0  0.55000  0.00000  0.65000  1.0000
  Pt  Pt2028    1.0  0.55000  0.05000  0.60000  1.0000
  Pt  Pt2029    1.0  0.50000  0.00000  0.70000  1.0000
  Pt  Pt2030    1.0  0.50000  0.05000  0.75000  1.0000
  Pt  Pt2031    1.0  0.55000  0.00000  0.75000  1.0000
  Pt  Pt2032    1.0  0.55000  0.05000  0.70000  1.0000
  Pt  Pt2033    1.0  0.50000  0.00000  0.80000  1.0000
  Pt  Pt2034    1.0  0.50000  0.05000  0.85000  1.0000
  Pt  Pt2035    1.0  0.55000  0.00000  0.85000  1.0000
  Pt  Pt2036    1.0  0.55000  0.05000  0.80000  1.0000
  Pt  Pt2037    1.0  0.50000  0.00000  0.90000  1.0000
  Pt  Pt2038    1.0  0.50000  0.05000  0.95000  1.0000
  Pt  Pt2039    1.0  0.55000  0.00000  0.95000  1.0000
  Pt  Pt2040    1.0  0.55000  0.05000  0.90000  1.0000
  Pt  Pt2041    1.0  0.50000  0.10000  0.00000  1.0000
  Pt  Pt2042    1.0  0.50000  0.15000  0.05000  1.0000
  Pt  Pt2043    1.0  0.55000  0.10000  0.05000  1.0000
  Pt  Pt2044    1.0  0.55000  0.15000  0.00000  1.0000
  Pt  Pt2045    1.0  0.50000  0.10000  0.10000  1.0000
  Pt  Pt2046    1.0  0.50000  0.15000  0.15000  1.0000
  Pt  Pt2047    1.0  0.55000  0.10000  0.15000  1.0000
  Pt  Pt2048    1.0  0.55000  0.15000  0.10000  1.0000
  Pt  Pt2049    1.0  0.50000  0.10000  0.20000  1.0000
  Pt  Pt2050    1.0  0.50000  0.15000  0.25000  1.0000
  Pt  Pt2051    1.0  0.55000  0.10000  0.25000  1.0000
  Pt  Pt2052    1.0  0.55000  0.15000  0.20000  1.0000
  Pt  Pt2053    1.0  0.50000  0.10000  0.30000  1.0000
  Pt  Pt2054    1.0  0.50000  0.15000  0.35000  1.0000
  Pt  Pt2055    1.0  0.55000  0.10000  0.35000  1.0000
  Pt  Pt2056    1.0  0.55000  0.15000  0.30000  1.0000
  Pt  Pt2057    1.0  0.50000  0.10000  0.40000  1.0000
  Pt  Pt2058    1.0  0.50000  0.15000  0.45000  1.0000
  Pt  Pt2059    1.0  0.55000  0.10000  0.45000  1.0000
  Pt  Pt2060    1.0  0.55000  0.15000  0.40000  1.0000
  Pt  Pt2061    1.0  0.50000  0.10000  0.50000  1.0000
  Pt  Pt2062    1.0  0.50000  0.15000  0.55000  1.0000
  Pt  Pt2063    1.0  0.55000  0.10000  0.55000  1.0000
  Pt  Pt2064    1.0  0.55000  0.15000  0.50000  1.0000
  Pt  Pt2065    1.0  0.50000  0.10000  0.60000  1.0000
  Pt  Pt2066    1.0  0.50000  0.15000  0.65000  1.0000
  Pt  Pt2067    1.0  0.55000  0.10000  0.65000  1.0000
  Pt  Pt2068    1.0  0.55000  0.15000  0.60000  1.0000
  Pt  Pt2069    1.0  0.50000  0.10000  0.70000  1.0000
  Pt  Pt2070    1.0  0.50000  0.15000  0.75000  1.0000
  Pt  Pt2071    1.0  0.55000  0.10000  0.75000  1.0000
  Pt  Pt2072    1.0  0.55000  0.15000  0.70000  1.0000
  Pt  Pt2073    1.0  0.50000  0.10000  0.80000  1.0000
  Pt  Pt2074    1.0  0.50000  0.15000  0.85000  1.0000
  Pt  Pt2075    1.0  0.55000  0.10000  0.85000  1.0000
  Pt  Pt2076    1.0  0.55000  0.15000  0.80000  1.0000
  Pt  Pt2077    1.0  0.50000  0.10000  0.90000  1.0000
  Pt  Pt2078    1.0  0.50000  0.15000  0.95000  1.0000
  Pt  Pt2079    1.0  0.55000  0.10000  0.95000  1.0000
  Pt  Pt2080    1.0  0.55000  0.15000  0.90000  1.0000
  Pt  Pt2081    1.0  0.50000  0.20000  0.00000  1.0000
  Pt  Pt2082    1.0  0.50000  0.25000  0.05000  1.0000
  Pt  Pt2083    1.0  0.55000  0.20000  0.05000  1.0000
  Pt  Pt2084    1.0  0.55000  0.25000  0.00000  1.0000
  Pt  Pt2085    1.0  0.50000  0.20000  0.10000  1.0000
  Pt  Pt2086    1.0  0.50000  0.25000  0.15000  1.0000
  Pt  Pt2087    1.0  0.55000  0.20000  0.15000  1.0000
  Pt  Pt2088    1.0  0.55000  0.25000  0.10000  1.0000
  Pt  Pt2089    1.0  0.50000  0.20000  0.20000  1.0000
  Pt  Pt2090    1.0  0.50000  0.25000  0.25000  1.0000
  Pt  Pt2091    1.0  0.55000  0.20000  0.25000  1.0000
  Pt  Pt2092    1.0  0.55000  0.25000  0.20000  1.0000
  Pt  Pt2093    1.0  0.50000  0.20000  0.30000  1.0000
  Pt  Pt2094    1.0  0.50000  0.25000  0.35000  1.0000
  Pt  Pt2095    1.0  0.55000  0.20000  0.35000  1.0000
  Pt  Pt2096    1.0  0.55000  0.25000  0.30000  1.0000
  Pt  Pt2097    1.0  0.50000  0.20000  0.40000  1.0000
  Pt  Pt2098    1.0  0.50000  0.25000  0.45000  1.0000
  Pt  Pt2099    1.0  0.55000  0.20000  0.45000  1.0000
  Pt  Pt2100    1.0  0.55000  0.25000  0.40000  1.0000
  Pt  Pt2101    1.0  0.50000  0.20000  0.50000  1.0000
  Pt  Pt2102    1.0  0.50000  0.25000  0.55000  1.0000
  Pt  Pt2103    1.0  0.55000  0.20000  0.55000  1.0000
  Pt  Pt2104    1.0  0.55000  0.25000  0.50000  1.0000
  Pt  Pt2105    1.0  0.50000  0.20000  0.60000  1.0000
  Pt  Pt2106    1.0  0.50000  0.25000  0.65000  1.0000
  Pt  Pt2107    1.0  0.55000  0.20000  0.65000  1.0000
  Pt  Pt2108    1.0  0.55000  0.25000  0.60000  1.0000
  Pt  Pt2109    1.0  0.50000  0.20000  0.70000  1.0000
  Pt  Pt2110    1.0  0.50000  0.25000  0.75000  1.0000
  Pt  Pt2111    1.0  0.55000  0.20000  0.75000  1.0000
  Pt  Pt2112    1.0  0.55000  0.25000  0.70000  1.0000
  Pt  Pt2113    1.0  0.50000  0.20000  0.80000  1.0000
  Pt  Pt2114    1.0  0.50000  0.25000  0.85000  1.0000
  Pt  Pt2115    1.0  0.55000  0.20000  0.85000  1.0000
  Pt  Pt2116    1.0  0.55000  0.25000  0.80000  1.0000
  Pt  Pt2117    1.0  0.50000  0.20000  0.90000  1.0000
  Pt  Pt2118    1.0  0.50000  0.25000  0.95000  1.0000
  Pt  Pt2119    1.0  0.55000  0.20000  0.95000  1.0000
  Pt  Pt2120    1.0  0.55000  0.25000  0.90000  1.0000
  Pt  Pt2121    1.0  0.50000  0.30000  0.00000  1.0000
  Pt  Pt2122    1.0  0.50000  0.35000  0.05000  1.0000
  Pt  Pt2123    1.0  0.55000  0.30000  0.05000  1.0000
  Pt  Pt2124    1.0  0.55000  0.35000  0.00000  1.0000
  Pt  Pt2125    1.0  0.50000  0.30000  0.10000  1.0000
  Pt  Pt2126    1.0  0.50000  0.35000  0.15000  1.0000
  Pt  Pt2127    1.0  0.55000  0.30000  0.15000  1.0000
  Pt  Pt2128    1.0  0.55000  0.35000  0.10000  1.0000
  Pt  Pt2129    1.0  0.50000  0.30000  0.20000  1.0000
  Pt  Pt2130    1.0  0.50000  0.35000  0.25000  1.0000
  Pt  Pt2131    1.0  0.55000  0.30000  0.25000  1.0000
  Pt  Pt2132    1.0  0.55000  0.35000  0.20000  1.0000
  Pt  Pt2133    1.0  0.50000  0.30000  0.30000  1.0000
  Pt  Pt2134    1.0  0.50000  0.35000  0.35000  1.0000
  Pt  Pt2135    1.0  0.55000  0.30000  0.35000  1.0000
  Pt  Pt2136    1.0  0.55000  0.35000  0.30000  1.0000
  Pt  Pt2137    1.0  0.50000  0.30000  0.40000  1.0000
  Pt  Pt2138    1.0  0.50000  0.35000  0.45000  1.0000
  Pt  Pt2139    1.0  0.55000  0.30000  0.45000  1.0000
  Pt  Pt2140    1.0  0.55000  0.35000  0.40000  1.0000
  Pt  Pt2141    1.0  0.50000  0.30000  0.50000  1.0000
  Pt  Pt2142    1.0  0.50000  0.35000  0.55000  1.0000
  Pt  Pt2143    1.0  0.55000  0.30000  0.55000  1.0000
  Pt  Pt2144    1.0  0.55000  0.35000  0.50000  1.0000
  Pt  Pt2145    1.0  0.50000  0.30000  0.60000  1.0000
  Pt  Pt2146    1.0  0.50000  0.35000  0.65000  1.0000
  Pt  Pt2147    1.0  0.55000  0.30000  0.65000  1.0000
  Pt  Pt2148    1.0  0.55000  0.35000  0.60000  1.0000
  Pt  Pt2149    1.0  0.50000  0.30000  0.70000  1.0000
  Pt  Pt2150    1.0  0.50000  0.35000  0.75000  1.0000
  Pt  Pt2151    1.0  0.55000  0.30000  0.75000  1.0000
  Pt  Pt2152    1.0  0.55000  0.35000  0.70000  1.0000
  Pt  Pt2153    1.0  0.50000  0.30000  0.80000  1.0000
  Pt  Pt2154    1.0  0.50000  0.35000  0.85000  1.0000
  Pt  Pt2155    1.0  0.55000  0.30000  0.85000  1.0000
  Pt  Pt2156    1.0  0.55000  0.35000  0.80000  1.0000
  Pt  Pt2157    1.0  0.50000  0.30000  0.90000  1.0000
  Pt  Pt2158    1.0  0.50000  0.35000  0.95000  1.0000
  Pt  Pt2159    1.0  0.55000  0.30000  0.95000  1.0000
  Pt  Pt2160    1.0  0.55000  0.35000  0.90000  1.0000
  Pt  Pt2161    1.0  0.50000  0.40000  0.00000  1.0000
  Pt  Pt2162    1.0  0.50000  0.45000  0.05000  1.0000
  Pt  Pt2163    1.0  0.55000  0.40000  0.05000  1.0000
  Pt  Pt2164    1.0  0.55000  0.45000  0.00000  1.0000
  Pt  Pt2165    1.0  0.50000  0.40000  0.10000  1.0000
  Pt  Pt2166    1.0  0.50000  0.45000  0.15000  1.0000
  Pt  Pt2167    1.0  0.55000  0.40000  0.15000  1.0000
  Pt  Pt2168    1.0  0.55000  0.45000  0.10000  1.0000
  Pt  Pt2169    1.0  0.50000  0.40000  0.20000  1.0000
  Pt  Pt2170    1.0  0.50000  0.45000  0.25000  1.0000
  Pt  Pt2171    1.0  0.55000  0.40000  0.25000  1.0000
  Pt  Pt2172    1.0  0.55000  0.45000  0.20000  1.0000
  Pt  Pt2173    1.0  0.50000  0.40000  0.30000  1.0000
  Pt  Pt2174    1.0  0.50000  0.45000  0.35000  1.0000
  Pt  Pt2175    1.0  0.55000  0.40000  0.35000  1.0000
  Pt  Pt2176    1.0  0.55000  0.45000  0.30000  1.0000
  Pt  Pt2177    1.0  0.50000  0.40000  0.40000  1.0000
  Pt  Pt2178    1.0  0.50000  0.45000  0.45000  1.0000
  Pt  Pt2179    1.0  0.55000  0.40000  0.45000  1.0000
  Pt  Pt2180    1.0  0.55000  0.45000  0.40000  1.0000
  Pt  Pt2181    1.0  0.50000  0.40000  0.50000  1.0000
  Pt  Pt2182    1.0  0.50000  0.45000  0.55000  1.0000
  Pt  Pt2183    1.0  0.55000  0.40000  0.55000  1.0000
  Pt  Pt2184    1.0  0.55000  0.45000  0.50000  1.0000
  Pt  Pt2185    1.0  0.50000  0.40000  0.60000  1.0000
  Pt  Pt2186    1.0  0.50000  0.45000  0.65000  1.0000
  Pt  Pt2187    1.0  0.55000  0.40000  0.65000  1.0000
  Pt  Pt2188    1.0  0.55000  0.45000  0.60000  1.0000
  Pt  Pt2189    1.0  0.50000  0.40000  0.70000  1.0000
  Pt  Pt2190    1.0  0.50000  0.45000  0.75000  1.0000
  Pt  Pt2191    1.0  0.55000  0.40000  0.75000  1.0000
  Pt  Pt2192    1.0  0.55000  0.45000  0.70000  1.0000
  Pt  Pt2193    1.0  0.50000  0.40000  0.80000  1.0000
  Pt  Pt2194    1.0  0.50000  0.45000  0.85000  1.0000
  Pt  Pt2195    1.0  0.55000  0.40000  0.85000  1.0000
  Pt  Pt2196    1.0  0.55000  0.45000  0.80000  1.0000
  Pt  Pt2197    1.0  0.50000  0.40000  0.90000  1.0000
  Pt  Pt2198    1.0  0.50000  0.45000  0.95000  1.0000
  Pt  Pt2199    1.0  0.55000  0.40000  0.95000  1.0000
  Pt  Pt2200    1.0  0.55000  0.45000  0.90000  1.0000
  Pt  Pt2201    1.0  0.50000  0.50000  0.00000  1.0000
  Pt  Pt2202    1.0  0.50000  0.55000  0.05000  1.0000
  Pt  Pt2203    1.0  0.55000  0.50000  0.05000  1.0000
  Pt  Pt2204    1.0  0.55000  0.55000  0.00000  1.0000
  Pt  Pt2205    1.0  0.50000  0.50000  0.10000  1.0000
  Pt  Pt2206    1.0  0.50000  0.55000  0.15000  1.0000
  Pt  Pt2207    1.0  0.55000  0.50000  0.15000  1.0000
  Pt  Pt2208    1.0  0.55000  0.55000  0.10000  1.0000
  Pt  Pt2209    1.0  0.50000  0.50000  0.20000  1.0000
  Pt  Pt2210    1.0  0.50000  0.55000  0.25000  1.0000
  Pt  Pt2211    1.0  0.55000  0.50000  0.25000  1.0000
  Pt  Pt2212    1.0  0.55000  0.55000  0.20000  1.0000
  Pt  Pt2213    1.0  0.50000  0.50000  0.30000  1.0000
  Pt  Pt2214    1.0  0.50000  0.55000  0.35000  1.0000
  Pt  Pt2215    1.0  0.55000  0.50000  0.35000  1.0000
  Pt  Pt2216    1.0  0.55000  0.55000  0.30000  1.0000
  Pt  Pt2217    1.0  0.50000  0.50000  0.40000  1.0000
  Pt  Pt2218    1.0  0.50000  0.55000  0.45000  1.0000
  Pt  Pt2219    1.0  0.55000  0.50000  0.45000  1.0000
  Pt  Pt2220    1.0  0.55000  0.55000  0.40000  1.0000
  Pt  Pt2221    1.0  0.50000  0.50000  0.50000  1.0000
  Pt  Pt2222    1.0  0.50000  0.55000  0.55000  1.0000
  Pt  Pt2223    1.0  0.55000  0.50000  0.55000  1.0000
  Pt  Pt2224    1.0  0.55000  0.55000  0.50000  1.0000
  Pt  Pt2225    1.0  0.50000  0.50000  0.60000  1.0000
  Pt  Pt2226    1.0  0.50000  0.55000  0.65000  1.0000
  Pt  Pt2227    1.0  0.55000  0.50000  0.65000  1.0000
  Pt  Pt2228    1.0  0.55000  0.55000  0.60000  1.0000
  Pt  Pt2229    1.0  0.50000  0.50000  0.70000  1.0000
  Pt  Pt2230    1.0  0.50000  0.55000  0.75000  1.0000
  Pt  Pt2231    1.0  0.55000  0.50000  0.75000  1.0000
  Pt  Pt2232    1.0  0.55000  0.55000  0.70000  1.0000
  Pt  Pt2233    1.0  0.50000  0.50000  0.80000  1.0000
  Pt  Pt2234    1.0  0.50000  0.55000  0.85000  1.0000
  Pt  Pt2235    1.0  0.55000  0.50000  0.85000  1.0000
  Pt  Pt2236    1.0  0.55000  0.55000  0.80000  1.0000
  Pt  Pt2237    1.0  0.50000  0.50000  0.90000  1.0000
  Pt  Pt2238    1.0  0.50000  0.55000  0.95000  1.0000
  Pt  Pt2239    1.0  0.55000  0.50000  0.95000  1.0000
  Pt  Pt2240    1.0  0.55000  0.55000  0.90000  1.0000
  Pt  Pt2241    1.0  0.50000  0.60000  0.00000  1.0000
  Pt  Pt2242    1.0  0.50000  0.65000  0.05000  1.0000
  Pt  Pt2243    1.0  0.55000  0.60000  0.05000  1.0000
  Pt  Pt2244    1.0  0.55000  0.65000  0.00000  1.0000
  Pt  Pt2245    1.0  0.50000  0.60000  0.10000  1.0000
  Pt  Pt2246    1.0  0.50000  0.65000  0.15000  1.0000
  Pt  Pt2247    1.0  0.55000  0.60000  0.15000  1.0000
  Pt  Pt2248    1.0  0.55000  0.65000  0.10000  1.0000
  Pt  Pt2249    1.0  0.50000  0.60000  0.20000  1.0000
  Pt  Pt2250    1.0  0.50000  0.65000  0.25000  1.0000
  Pt  Pt2251    1.0  0.55000  0.60000  0.25000  1.0000
  Pt  Pt2252    1.0  0.55000  0.65000  0.20000  1.0000
  Pt  Pt2253    1.0  0.50000  0.60000  0.30000  1.0000
  Pt  Pt2254    1.0  0.50000  0.65000  0.35000  1.0000
  Pt  Pt2255    1.0  0.55000  0.60000  0.35000  1.0000
  Pt  Pt2256    1.0  0.55000  0.65000  0.30000  1.0000
  Pt  Pt2257    1.0  0.50000  0.60000  0.40000  1.0000
  Pt  Pt2258    1.0  0.50000  0.65000  0.45000  1.0000
  Pt  Pt2259    1.0  0.55000  0.60000  0.45000  1.0000
  Pt  Pt2260    1.0  0.55000  0.65000  0.40000  1.0000
  Pt  Pt2261    1.0  0.50000  0.60000  0.50000  1.0000
  Pt  Pt2262    1.0  0.50000  0.65000  0.55000  1.0000
  Pt  Pt2263    1.0  0.55000  0.60000  0.55000  1.0000
  Pt  Pt2264    1.0  0.55000  0.65000  0.50000  1.0000
  Pt  Pt2265    1.0  0.50000  0.60000  0.60000  1.0000
  Pt  Pt2266    1.0  0.50000  0.65000  0.65000  1.0000
  Pt  Pt2267    1.0  0.55000  0.60000  0.65000  1.0000
  Pt  Pt2268    1.0  0.55000  0.65000  0.60000  1.0000
  Pt  Pt2269    1.0  0.50000  0.60000  0.70000  1.0000
  Pt  Pt2270    1.0  0.50000  0.65000  0.75000  1.0000
  Pt  Pt2271    1.0  0.55000  0.60000  0.75000  1.0000
  Pt  Pt2272    1.0  0.55000  0.65000  0.70000  1.0000
  Pt  Pt2273    1.0  0.50000  0.60000  0.80000  1.0000
  Pt  Pt2274    1.0  0.50000  0.65000  0.85000  1.0000
  Pt  Pt2275    1.0  0.55000  0.60000  0.85000  1.0000
  Pt  Pt2276    1.0  0.55000  0.65000  0.80000  1.0000
  Pt  Pt2277    1.0  0.50000  0.60000  0.90000  1.0000
  Pt  Pt2278    1.0  0.50000  0.65000  0.95000  1.0000
  Pt  Pt2279    1.0  0.55000  0.60000  0.95000  1.0000
  Pt  Pt2280    1.0  0.55000  0.65000  0.90000  1.0000
  Pt  Pt2281    1.0  0.50000  0.70000  0.00000  1.0000
  Pt  Pt2282    1.0  0.50000  0.75000  0.05000  1.0000
  Pt  Pt2283    1.0  0.55000  0.70000  0.05000  1.0000
  Pt  Pt2284    1.0  0.55000  0.75000  0.00000  1.0000
  Pt  Pt2285    1.0  0.50000  0.70000  0.10000  1.0000
  Pt  Pt2286    1.0  0.50000  0.75000  0.15000  1.0000
  Pt  Pt2287    1.0  0.55000  0.70000  0.15000  1.0000
  Pt  Pt2288    1.0  0.55000  0.75000  0.10000  1.0000
  Pt  Pt2289    1.0  0.50000  0.70000  0.20000  1.0000
  Pt  Pt2290    1.0  0.50000  0.75000  0.25000  1.0000
  Pt  Pt2291    1.0  0.55000  0.70000  0.25000  1.0000
  Pt  Pt2292    1.0  0.55000  0.75000  0.20000  1.0000
  Pt  Pt2293    1.0  0.50000  0.70000  0.30000  1.0000
  Pt  Pt2294    1.0  0.50000  0.75000  0.35000  1.0000
  Pt  Pt2295    1.0  0.55000  0.70000  0.35000  1.0000
  Pt  Pt2296    1.0  0.55000  0.75000  0.30000  1.0000
  Pt  Pt2297    1.0  0.50000  0.70000  0.40000  1.0000
  Pt  Pt2298    1.0  0.50000  0.75000  0.45000  1.0000
  Pt  Pt2299    1.0  0.55000  0.70000  0.45000  1.0000
  Pt  Pt2300    1.0  0.55000  0.75000  0.40000  1.0000
  Pt  Pt2301    1.0  0.50000  0.70000  0.50000  1.0000
  Pt  Pt2302    1.0  0.50000  0.75000  0.55000  1.0000
  Pt  Pt2303    1.0  0.55000  0.70000  0.55000  1.0000
  Pt  Pt2304    1.0  0.55000  0.75000  0.50000  1.0000
  Pt  Pt2305    1.0  0.50000  0.70000  0.60000  1.0000
  Pt  Pt2306    1.0  0.50000  0.75000  0.65000  1.0000
  Pt  Pt2307    1.0  0.55000  0.70000  0.65000  1.0000
  Pt  Pt2308    1.0  0.55000  0.75000  0.60000  1.0000
  Pt  Pt2309    1.0  0.50000  0.70000  0.70000  1.0000
  Pt  Pt2310    1.0  0.50000  0.75000  0.75000  1.0000
  Pt  Pt2311    1.0  0.55000  0.70000  0.75000  1.0000
  Pt  Pt2312    1.0  0.55000  0.75000  0.70000  1.0000
  Pt  Pt2313    1.0  0.50000  0.70000  0.80000  1.0000
  Pt  Pt2314    1.0  0.50000  0.75000  0.85000  1.0000
  Pt  Pt2315    1.0  0.55000  0.70000  0.85000  1.0000
  Pt  Pt2316    1.0  0.55000  0.75000  0.80000  1.0000
  Pt  Pt2317    1.0  0.50000  0.70000  0.90000  1.0000
  Pt  Pt2318    1.0  0.50000  0.75000  0.95000  1.0000
  Pt  Pt2319    1.0  0.55000  0.70000  0.95000  1.0000
  Pt  Pt2320    1.0  0.55000  0.75000  0.90000  1.0000
  Pt  Pt2321    1.0  0.50000  0.80000  0.00000  1.0000
  Pt  Pt2322    1.0  0.50000  0.85000  0.05000  1.0000
  Pt  Pt2323    1.0  0.55000  0.80000  0.05000  1.0000
  Pt  Pt2324    1.0  0.55000  0.85000  0.00000  1.0000
  Pt  Pt2325    1.0  0.50000  0.80000  0.10000  1.0000
  Pt  Pt2326    1.0  0.50000  0.85000  0.15000  1.0000
  Pt  Pt2327    1.0  0.55000  0.80000  0.15000  1.0000
  Pt  Pt2328    1.0  0.55000  0.85000  0.10000  1.0000
  Pt  Pt2329    1.0  0.50000  0.80000  0.20000  1.0000
  Pt  Pt2330    1.0  0.50000  0.85000  0.25000  1.0000
  Pt  Pt2331    1.0  0.55000  0.80000  0.25000  1.0000
  Pt  Pt2332    1.0  0.55000  0.85000  0.20000  1.0000
  Pt  Pt2333    1.0  0.50000  0.80000  0.30000  1.0000
  Pt  Pt2334    1.0  0.50000  0.85000  0.35000  1.0000
  Pt  Pt2335    1.0  0.55000  0.80000  0.35000  1.0000
  Pt  Pt2336    1.0  0.55000  0.85000  0.30000  1.0000
  Pt  Pt2337    1.0  0.50000  0.80000  0.40000  1.0000
  Pt  Pt2338    1.0  0.50000  0.85000  0.45000  1.0000
  Pt  Pt2339    1.0  0.55000  0.80000  0.45000  1.0000
  Pt  Pt2340    1.0  0.55000  0.85000  0.40000  1.0000
  Pt  Pt2341    1.0  0.50000  0.80000  0.50000  1.0000
  Pt  Pt2342    1.0  0.50000  0.85000  0.55000  1.0000
  Pt  Pt2343    1.0  0.55000  0.80000  0.55000  1.0000
  Pt  Pt2344    1.0  0.55000  0.85000  0.50000  1.0000
  Pt  Pt2345    1.0  0.50000  0.80000  0.60000  1.0000
  Pt  Pt2346    1.0  0.50000  0.85000  0.65000  1.0000
  Pt  Pt2347    1.0  0.55000  0.80000  0.65000  1.0000
  Pt  Pt2348    1.0  0.55000  0.85000  0.60000  1.0000
  Pt  Pt2349    1.0  0.50000  0.80000  0.70000  1.0000
  Pt  Pt2350    1.0  0.50000  0.85000  0.75000  1.0000
  Pt  Pt2351    1.0  0.55000  0.80000  0.75000  1.0000
  Pt  Pt2352    1.0  0.55000  0.85000  0.70000  1.0000
  Pt  Pt2353    1.0  0.50000  0.80000  0.80000  1.0000
  Pt  Pt2354    1.0  0.50000  0.85000  0.85000  1.0000
  Pt  Pt2355    1.0  0.55000  0.80000  0.85000  1.0000
  Pt  Pt2356    1.0  0.55000  0.85000  0.80000  1.0000
  Pt  Pt2357    1.0  0.50000  0.80000  0.90000  1.0000
  Pt  Pt2358    1.0  0.50000  0.85000  0.95000  1.0000
  Pt  Pt2359    1.0  0.55000  0.80000  0.95000  1.0000
  Pt  Pt2360    1.0  0.55000  0.85000  0.90000  1.0000
  Pt  Pt2361    1.0  0.50000  0.90000  0.00000  1.0000
  Pt  Pt2362    1.0  0.50000  0.95000  0.05000  1.0000
  Pt  Pt2363    1.0  0.55000  0.90000  0.05000  1.0000
  Pt  Pt2364    1.0  0.55000  0.95000  0.00000  1.0000
  Pt  Pt2365    1.0  0.50000  0.90000  0.10000  1.0000
  Pt  Pt2366    1.0  0.50000  0.95000  0.15000  1.0000
  Pt  Pt2367    1.0  0.55000  0.90000  0.15000  1.0000
  Pt  Pt2368    1.0  0.55000  0.95000  0.10000  1.0000
  Pt  Pt2369    1.0  0.50000  0.90000  0.20000  1.0000
  Pt  Pt2370    1.0  0.50000  0.95000  0.25000  1.0000
  Pt  Pt2371    1.0  0.55000  0.90000  0.25000  1.0000
  Pt  Pt2372    1.0  0.55000  0.95000  0.20000  1.0000
  Pt  Pt2373    1.0  0.50000  0.90000  0.30000  1.0000
  Pt  Pt2374    1.0  0.50000  0.95000  0.35000  1.0000
  Pt  Pt2375    1.0  0.55000  0.90000  0.35000  1.0000
  Pt  Pt2376    1.0  0.55000  0.95000  0.30000  1.0000
  Pt  Pt2377    1.0  0.50000  0.90000  0.40000  1.0000
  Pt  Pt2378    1.0  0.50000  0.95000  0.45000  1.0000
  Pt  Pt2379    1.0  0.55000  0.90000  0.45000  1.0000
  Pt  Pt2380    1.0  0.55000  0.95000  0.40000  1.0000
  Pt  Pt2381    1.0  0.50000  0.90000  0.50000  1.0000
  Pt  Pt2382    1.0  0.50000  0.95000  0.55000  1.0000
  Pt  Pt2383    1.0  0.55000  0.90000  0.55000  1.0000
  Pt  Pt2384    1.0  0.55000  0.95000  0.50000  1.0000
  Pt  Pt2385    1.0  0.50000  0.90000  0.60000  1.0000
  Pt  Pt2386    1.0  0.50000  0.95000  0.65000  1.0000
  Pt  Pt2387    1.0  0.55000  0.90000  0.65000  1.0000
  Pt  Pt2388    1.0  0.55000  0.95000  0.60000  1.0000
  Pt  Pt2389    1.0  0.50000  0.90000  0.70000  1.0000
  Pt  Pt2390    1.0  0.50000  0.95000  0.75000  1.0000
  Pt  Pt2391    1.0  0.55000  0.90000  0.75000  1.0000
  Pt  Pt2392    1.0  0.55000  0.95000  0.70000  1.0000
  Pt  Pt2393    1.0  0.50000  0.90000  0.80000  1.0000
  Pt  Pt2394    1.0  0.50000  0.95000  0.85000  1.0000
  Pt  Pt2395    1.0  0.55000  0.90000  0.85000  1.0000
  Pt  Pt2396    1.0  0.55000  0.95000  0.80000  1.0000
  Pt  Pt2397    1.0  0.50000  0.90000  0.90000  1.0000
  Pt  Pt2398    1.0  0.50000  0.95000  0.95000  1.0000
  Pt  Pt2399    1.0  0.55000  0.90000  0.95000  1.0000
  Pt  Pt2400    1.0  0.55000  0.95000  0.90000  1.0000
  Pt  Pt2401    1.0  0.60000  0.00000  0.00000  1.0000
  Pt  Pt2402    1.0  0.60000  0.05000  0.05000  1.0000
  Pt  Pt2403    1.0  0.65000  0.00000  0.05000  1.0000
  Pt  Pt2404    1.0  0.65000  0.05000  0.00000  1.0000
  Pt  Pt2405    1.0  0.60000  0.00000  0.10000  1.0000
  Pt  Pt2406    1.0  0.60000  0.05000  0.15000  1.0000
  Pt  Pt2407    1.0  0.65000  0.00000  0.15000  1.0000
  Pt  Pt2408    1.0  0.65000  0.05000  0.10000  1.0000
  Pt  Pt2409    1.0  0.60000  0.00000  0.20000  1.0000
  Pt  Pt2410    1.0  0.60000  0.05000  0.25000  1.0000
  Pt  Pt2411    1.0  0.65000  0.00000  0.25000  1.0000
  Pt  Pt2412    1.0  0.65000  0.05000  0.20000  1.0000
  Pt  Pt2413    1.0  0.60000  0.00000  0.30000  1.0000
  Pt  Pt2414    1.0  0.60000  0.05000  0.35000  1.0000
  Pt  Pt2415    1.0  0.65000  0.00000  0.35000  1.0000
  Pt  Pt2416    1.0  0.65000  0.05000  0.30000  1.0000
  Pt  Pt2417    1.0  0.60000  0.00000  0.40000  1.0000
  Pt  Pt2418    1.0  0.60000  0.05000  0.45000  1.0000
  Pt  Pt2419    1.0  0.65000  0.00000  0.45000  1.0000
  Pt  Pt2420    1.0  0.65000  0.05000  0.40000  1.0000
  Pt  Pt2421    1.0  0.60000  0.00000  0.50000  1.0000
  Pt  Pt2422    1.0  0.60000  0.05000  0.55000  1.0000
  Pt  Pt2423    1.0  0.65000  0.00000  0.55000  1.0000
  Pt  Pt2424    1.0  0.65000  0.05000  0.50000  1.0000
  Pt  Pt2425    1.0  0.60000  0.00000  0.60000  1.0000
  Pt  Pt2426    1.0  0.60000  0.05000  0.65000  1.0000
  Pt  Pt2427    1.0  0.65000  0.00000  0.65000  1.0000
  Pt  Pt2428    1.0  0.65000  0.05000  0.60000  1.0000
  Pt  Pt2429    1.0  0.60000  0.00000  0.70000  1.0000
  Pt  Pt2430    1.0  0.60000  0.05000  0.75000  1.0000
  Pt  Pt2431    1.0  0.65000  0.00000  0.75000  1.0000
  Pt  Pt2432    1.0  0.65000  0.05000  0.70000  1.0000
  Pt  Pt2433    1.0  0.60000  0.00000  0.80000  1.0000
  Pt  Pt2434    1.0  0.60000  0.05000  0.85000  1.0000
  Pt  Pt2435    1.0  0.65000  0.00000  0.85000  1.0000
  Pt  Pt2436    1.0  0.65000  0.05000  0.80000  1.0000
  Pt  Pt2437    1.0  0.60000  0.00000  0.90000  1.0000
  Pt  Pt2438    1.0  0.60000  0.05000  0.95000  1.0000
  Pt  Pt2439    1.0  0.65000  0.00000  0.95000  1.0000
  Pt  Pt2440    1.0  0.65000  0.05000  0.90000  1.0000
  Pt  Pt2441    1.0  0.60000  0.10000  0.00000  1.0000
  Pt  Pt2442    1.0  0.60000  0.15000  0.05000  1.0000
  Pt  Pt2443    1.0  0.65000  0.10000  0.05000  1.0000
  Pt  Pt2444    1.0  0.65000  0.15000  0.00000  1.0000
  Pt  Pt2445    1.0  0.60000  0.10000  0.10000  1.0000
  Pt  Pt2446    1.0  0.60000  0.15000  0.15000  1.0000
  Pt  Pt2447    1.0  0.65000  0.10000  0.15000  1.0000
  Pt  Pt2448    1.0  0.65000  0.15000  0.10000  1.0000
  Pt  Pt2449    1.0  0.60000  0.10000  0.20000  1.0000
  Pt  Pt2450    1.0  0.60000  0.15000  0.25000  1.0000
  Pt  Pt2451    1.0  0.65000  0.10000  0.25000  1.0000
  Pt  Pt2452    1.0  0.65000  0.15000  0.20000  1.0000
  Pt  Pt2453    1.0  0.60000  0.10000  0.30000  1.0000
  Pt  Pt2454    1.0  0.60000  0.15000  0.35000  1.0000
  Pt  Pt2455    1.0  0.65000  0.10000  0.35000  1.0000
  Pt  Pt2456    1.0  0.65000  0.15000  0.30000  1.0000
  Pt  Pt2457    1.0  0.60000  0.10000  0.40000  1.0000
  Pt  Pt2458    1.0  0.60000  0.15000  0.45000  1.0000
  Pt  Pt2459    1.0  0.65000  0.10000  0.45000  1.0000
  Pt  Pt2460    1.0  0.65000  0.15000  0.40000  1.0000
  Pt  Pt2461    1.0  0.60000  0.10000  0.50000  1.0000
  Pt  Pt2462    1.0  0.60000  0.15000  0.55000  1.0000
  Pt  Pt2463    1.0  0.65000  0.10000  0.55000  1.0000
  Pt  Pt2464    1.0  0.65000  0.15000  0.50000  1.0000
  Pt  Pt2465    1.0  0.60000  0.10000  0.60000  1.0000
  Pt  Pt2466    1.0  0.60000  0.15000  0.65000  1.0000
  Pt  Pt2467    1.0  0.65000  0.10000  0.65000  1.0000
  Pt  Pt2468    1.0  0.65000  0.15000  0.60000  1.0000
  Pt  Pt2469    1.0  0.60000  0.10000  0.70000  1.0000
  Pt  Pt2470    1.0  0.60000  0.15000  0.75000  1.0000
  Pt  Pt2471    1.0  0.65000  0.10000  0.75000  1.0000
  Pt  Pt2472    1.0  0.65000  0.15000  0.70000  1.0000
  Pt  Pt2473    1.0  0.60000  0.10000  0.80000  1.0000
  Pt  Pt2474    1.0  0.60000  0.15000  0.85000  1.0000
  Pt  Pt2475    1.0  0.65000  0.10000  0.85000  1.0000
  Pt  Pt2476    1.0  0.65000  0.15000  0.80000  1.0000
  Pt  Pt2477    1.0  0.60000  0.10000  0.90000  1.0000
  Pt  Pt2478    1.0  0.60000  0.15000  0.95000  1.0000
  Pt  Pt2479    1.0  0.65000  0.10000  0.95000  1.0000
  Pt  Pt2480    1.0  0.65000  0.15000  0.90000  1.0000
  Pt  Pt2481    1.0  0.60000  0.20000  0.00000  1.0000
  Pt  Pt2482    1.0  0.60000  0.25000  0.05000  1.0000
  Pt  Pt2483    1.0  0.65000  0.20000  0.05000  1.0000
  Pt  Pt2484    1.0  0.65000  0.25000  0.00000  1.0000
  Pt  Pt2485    1.0  0.60000  0.20000  0.10000  1.0000
  Pt  Pt2486    1.0  0.60000  0.25000  0.15000  1.0000
  Pt  Pt2487    1.0  0.65000  0.20000  0.15000  1.0000
  Pt  Pt2488    1.0  0.65000  0.25000  0.10000  1.0000
  Pt  Pt2489    1.0  0.60000  0.20000  0.20000  1.0000
  Pt  Pt2490    1.0  0.60000  0.25000  0.25000  1.0000
  Pt  Pt2491    1.0  0.65000  0.20000  0.25000  1.0000
  Pt  Pt2492    1.0  0.65000  0.25000  0.20000  1.0000
  Pt  Pt2493    1.0  0.60000  0.20000  0.30000  1.0000
  Pt  Pt2494    1.0  0.60000  0.25000  0.35000  1.0000
  Pt  Pt2495    1.0  0.65000  0.20000  0.35000  1.0000
  Pt  Pt2496    1.0  0.65000  0.25000  0.30000  1.0000
  Pt  Pt2497    1.0  0.60000  0.20000  0.40000  1.0000
  Pt  Pt2498    1.0  0.60000  0.25000  0.45000  1.0000
  Pt  Pt2499    1.0  0.65000  0.20000  0.45000  1.0000
  Pt  Pt2500    1.0  0.65000  0.25000  0.40000  1.0000
  Pt  Pt2501    1.0  0.60000  0.20000  0.50000  1.0000
  Pt  Pt2502    1.0  0.60000  0.25000  0.55000  1.0000
  Pt  Pt2503    1.0  0.65000  0.20000  0.55000  1.0000
  Pt  Pt2504    1.0  0.65000  0.25000  0.50000  1.0000
  Pt  Pt2505    1.0  0.60000  0.20000  0.60000  1.0000
  Pt  Pt2506    1.0  0.60000  0.25000  0.65000  1.0000
  Pt  Pt2507    1.0  0.65000  0.20000  0.65000  1.0000
  Pt  Pt2508    1.0  0.65000  0.25000  0.60000  1.0000
  Pt  Pt2509    1.0  0.60000  0.20000  0.70000  1.0000
  Pt  Pt2510    1.0  0.60000  0.25000  0.75000  1.0000
  Pt  Pt2511    1.0  0.65000  0.20000  0.75000  1.0000
  Pt  Pt2512    1.0  0.65000  0.25000  0.70000  1.0000
  Pt  Pt2513    1.0  0.60000  0.20000  0.80000  1.0000
  Pt  Pt2514    1.0  0.60000  0.25000  0.85000  1.0000
  Pt  Pt2515    1.0  0.65000  0.20000  0.85000  1.0000
  Pt  Pt2516    1.0  0.65000  0.25000  0.80000  1.0000
  Pt  Pt2517    1.0  0.60000  0.20000  0.90000  1.0000
  Pt  Pt2518    1.0  0.60000  0.25000  0.95000  1.0000
  Pt  Pt2519    1.0  0.65000  0.20000  0.95000  1.0000
  Pt  Pt2520    1.0  0.65000  0.25000  0.90000  1.0000
  Pt  Pt2521    1.0  0.60000  0.30000  0.00000  1.0000
  Pt  Pt2522    1.0  0.60000  0.35000  0.05000  1.0000
  Pt  Pt2523    1.0  0.65000  0.30000  0.05000  1.0000
  Pt  Pt2524    1.0  0.65000  0.35000  0.00000  1.0000
  Pt  Pt2525    1.0  0.60000  0.30000  0.10000  1.0000
  Pt  Pt2526    1.0  0.60000  0.35000  0.15000  1.0000
  Pt  Pt2527    1.0  0.65000  0.30000  0.15000  1.0000
  Pt  Pt2528    1.0  0.65000  0.35000  0.10000  1.0000
  Pt  Pt2529    1.0  0.60000  0.30000  0.20000  1.0000
  Pt  Pt2530    1.0  0.60000  0.35000  0.25000  1.0000
  Pt  Pt2531    1.0  0.65000  0.30000  0.25000  1.0000
  Pt  Pt2532    1.0  0.65000  0.35000  0.20000  1.0000
  Pt  Pt2533    1.0  0.60000  0.30000  0.30000  1.0000
  Pt  Pt2534    1.0  0.60000  0.35000  0.35000  1.0000
  Pt  Pt2535    1.0  0.65000  0.30000  0.35000  1.0000
  Pt  Pt2536    1.0  0.65000  0.35000  0.30000  1.0000
  Pt  Pt2537    1.0  0.60000  0.30000  0.40000  1.0000
  Pt  Pt2538    1.0  0.60000  0.35000  0.45000  1.0000
  Pt  Pt2539    1.0  0.65000  0.30000  0.45000  1.0000
  Pt  Pt2540    1.0  0.65000  0.35000  0.40000  1.0000
  Pt  Pt2541    1.0  0.60000  0.30000  0.50000  1.0000
  Pt  Pt2542    1.0  0.60000  0.35000  0.55000  1.0000
  Pt  Pt2543    1.0  0.65000  0.30000  0.55000  1.0000
  Pt  Pt2544    1.0  0.65000  0.35000  0.50000  1.0000
  Pt  Pt2545    1.0  0.60000  0.30000  0.60000  1.0000
  Pt  Pt2546    1.0  0.60000  0.35000  0.65000  1.0000
  Pt  Pt2547    1.0  0.65000  0.30000  0.65000  1.0000
  Pt  Pt2548    1.0  0.65000  0.35000  0.60000  1.0000
  Pt  Pt2549    1.0  0.60000  0.30000  0.70000  1.0000
  Pt  Pt2550    1.0  0.60000  0.35000  0.75000  1.0000
  Pt  Pt2551    1.0  0.65000  0.30000  0.75000  1.0000
  Pt  Pt2552    1.0  0.65000  0.35000  0.70000  1.0000
  Pt  Pt2553    1.0  0.60000  0.30000  0.80000  1.0000
  Pt  Pt2554    1.0  0.60000  0.35000  0.85000  1.0000
  Pt  Pt2555    1.0  0.65000  0.30000  0.85000  1.0000
  Pt  Pt2556    1.0  0.65000  0.35000  0.80000  1.0000
  Pt  Pt2557    1.0  0.60000  0.30000  0.90000  1.0000
  Pt  Pt2558    1.0  0.60000  0.35000  0.95000  1.0000
  Pt  Pt2559    1.0  0.65000  0.30000  0.95000  1.0000
  Pt  Pt2560    1.0  0.65000  0.35000  0.90000  1.0000
  Pt  Pt2561    1.0  0.60000  0.40000  0.00000  1.0000
  Pt  Pt2562    1.0  0.60000  0.45000  0.05000  1.0000
  Pt  Pt2563    1.0  0.65000  0.40000  0.05000  1.0000
  Pt  Pt2564    1.0  0.65000  0.45000  0.00000  1.0000
  Pt  Pt2565    1.0  0.60000  0.40000  0.10000  1.0000
  Pt  Pt2566    1.0  0.60000  0.45000  0.15000  1.0000
  Pt  Pt2567    1.0  0.65000  0.40000  0.15000  1.0000
  Pt  Pt2568    1.0  0.65000  0.45000  0.10000  1.0000
  Pt  Pt2569    1.0  0.60000  0.40000  0.20000  1.0000
  Pt  Pt2570    1.0  0.60000  0.45000  0.25000  1.0000
  Pt  Pt2571    1.0  0.65000  0.40000  0.25000  1.0000
  Pt  Pt2572    1.0  0.65000  0.45000  0.20000  1.0000
  Pt  Pt2573    1.0  0.60000  0.40000  0.30000  1.0000
  Pt  Pt2574    1.0  0.60000  0.45000  0.35000  1.0000
  Pt  Pt2575    1.0  0.65000  0.40000  0.35000  1.0000
  Pt  Pt2576    1.0  0.65000  0.45000  0.30000  1.0000
  Pt  Pt2577    1.0  0.60000  0.40000  0.40000  1.0000
  Pt  Pt2578    1.0  0.60000  0.45000  0.45000  1.0000
  Pt  Pt2579    1.0  0.65000  0.40000  0.45000  1.0000
  Pt  Pt2580    1.0  0.65000  0.45000  0.40000  1.0000
  Pt  Pt2581    1.0  0.60000  0.40000  0.50000  1.0000
  Pt  Pt2582    1.0  0.60000  0.45000  0.55000  1.0000
  Pt  Pt2583    1.0  0.65000  0.40000  0.55000  1.0000
  Pt  Pt2584    1.0  0.65000  0.45000  0.50000  1.0000
  Pt  Pt2585    1.0  0.60000  0.40000  0.60000  1.0000
  Pt  Pt2586    1.0  0.60000  0.45000  0.65000  1.0000
  Pt  Pt2587    1.0  0.65000  0.40000  0.65000  1.0000
  Pt  Pt2588    1.0  0.65000  0.45000  0.60000  1.0000
  Pt  Pt2589    1.0  0.60000  0.40000  0.70000  1.0000
  Pt  Pt2590    1.0  0.60000  0.45000  0.75000  1.0000
  Pt  Pt2591    1.0  0.65000  0.40000  0.75000  1.0000
  Pt  Pt2592    1.0  0.65000  0.45000  0.70000  1.0000
  Pt  Pt2593    1.0  0.60000  0.40000  0.80000  1.0000
  Pt  Pt2594    1.0  0.60000  0.45000  0.85000  1.0000
  Pt  Pt2595    1.0  0.65000  0.40000  0.85000  1.0000
  Pt  Pt2596    1.0  0.65000  0.45000  0.80000  1.0000
  Pt  Pt2597    1.0  0.60000  0.40000  0.90000  1.0000
  Pt  Pt2598    1.0  0.60000  0.45000  0.95000  1.0000
  Pt  Pt2599    1.0  0.65000  0.40000  0.95000  1.0000
  Pt  Pt2600    1.0  0.65000  0.45000  0.90000  1.0000
  Pt  Pt2601    1.0  0.60000  0.50000  0.00000  1.0000
  Pt  Pt2602    1.0  0.60000  0.55000  0.05000  1.0000
  Pt  Pt2603    1.0  0.65000  0.50000  0.05000  1.0000
  Pt  Pt2604    1.0  0.65000  0.55000  0.00000  1.0000
  Pt  Pt2605    1.0  0.60000  0.50000  0.10000  1.0000
  Pt  Pt2606    1.0  0.60000  0.55000  0.15000  1.0000
  Pt  Pt2607    1.0  0.65000  0.50000  0.15000  1.0000
  Pt  Pt2608    1.0  0.65000  0.55000  0.10000  1.0000
  Pt  Pt2609    1.0  0.60000  0.50000  0.20000  1.0000
  Pt  Pt2610    1.0  0.60000  0.55000  0.25000  1.0000
  Pt  Pt2611    1.0  0.65000  0.50000  0.25000  1.0000
  Pt  Pt2612    1.0  0.65000  0.55000  0.20000  1.0000
  Pt  Pt2613    1.0  0.60000  0.50000  0.30000  1.0000
  Pt  Pt2614    1.0  0.60000  0.55000  0.35000  1.0000
  Pt  Pt2615    1.0  0.65000  0.50000  0.35000  1.0000
  Pt  Pt2616    1.0  0.65000  0.55000  0.30000  1.0000
  Pt  Pt2617    1.0  0.60000  0.50000  0.40000  1.0000
  Pt  Pt2618    1.0  0.60000  0.55000  0.45000  1.0000
  Pt  Pt2619    1.0  0.65000  0.50000  0.45000  1.0000
  Pt  Pt2620    1.0  0.65000  0.55000  0.40000  1.0000
  Pt  Pt2621    1.0  0.60000  0.50000  0.50000  1.0000
  Pt  Pt2622    1.0  0.60000  0.55000  0.55000  1.0000
  Pt  Pt2623    1.0  0.65000  0.50000  0.55000  1.0000
  Pt  Pt2624    1.0  0.65000  0.55000  0.50000  1.0000
  Pt  Pt2625    1.0  0.60000  0.50000  0.60000  1.0000
  Pt  Pt2626    1.0  0.60000  0.55000  0.65000  1.0000
  Pt  Pt2627    1.0  0.65000  0.50000  0.65000  1.0000
  Pt  Pt2628    1.0  0.65000  0.55000  0.60000  1.0000
  Pt  Pt2629    1.0  0.60000  0.50000  0.70000  1.0000
  Pt  Pt2630    1.0  0.60000  0.55000  0.75000  1.0000
  Pt  Pt2631    1.0  0.65000  0.50000  0.75000  1.0000
  Pt  Pt2632    1.0  0.65000  0.55000  0.70000  1.0000
  Pt  Pt2633    1.0  0.60000  0.50000  0.80000  1.0000
  Pt  Pt2634    1.0  0.60000  0.55000  0.85000  1.0000
  Pt  Pt2635    1.0  0.65000  0.50000  0.85000  1.0000
  Pt  Pt2636    1.0  0.65000  0.55000  0.80000  1.0000
  Pt  Pt2637    1.0  0.60000  0.50000  0.90000  1.0000
  Pt  Pt2638    1.0  0.60000  0.55000  0.95000  1.0000
  Pt  Pt2639    1.0  0.65000  0.50000  0.95000  1.0000
  Pt  Pt2640    1.0  0.65000  0.55000  0.90000  1.0000
  Pt  Pt2641    1.0  0.60000  0.60000  0.00000  1.0000
  Pt  Pt2642    1.0  0.60000  0.65000  0.05000  1.0000
  Pt  Pt2643    1.0  0.65000  0.60000  0.05000  1.0000
  Pt  Pt2644    1.0  0.65000  0.65000  0.00000  1.0000
  Pt  Pt2645    1.0  0.60000  0.60000  0.10000  1.0000
  Pt  Pt2646    1.0  0.60000  0.65000  0.15000  1.0000
  Pt  Pt2647    1.0  0.65000  0.60000  0.15000  1.0000
  Pt  Pt2648    1.0  0.65000  0.65000  0.10000  1.0000
  Pt  Pt2649    1.0  0.60000  0.60000  0.20000  1.0000
  Pt  Pt2650    1.0  0.60000  0.65000  0.25000  1.0000
  Pt  Pt2651    1.0  0.65000  0.60000  0.25000  1.0000
  Pt  Pt2652    1.0  0.65000  0.65000  0.20000  1.0000
  Pt  Pt2653    1.0  0.60000  0.60000  0.30000  1.0000
  Pt  Pt2654    1.0  0.60000  0.65000  0.35000  1.0000
  Pt  Pt2655    1.0  0.65000  0.60000  0.35000  1.0000
  Pt  Pt2656    1.0  0.65000  0.65000  0.30000  1.0000
  Pt  Pt2657    1.0  0.60000  0.60000  0.40000  1.0000
  Pt  Pt2658    1.0  0.60000  0.65000  0.45000  1.0000
  Pt  Pt2659    1.0  0.65000  0.60000  0.45000  1.0000
  Pt  Pt2660    1.0  0.65000  0.65000  0.40000  1.0000
  Pt  Pt2661    1.0  0.60000  0.60000  0.50000  1.0000
  Pt  Pt2662    1.0  0.60000  0.65000  0.55000  1.0000
  Pt  Pt2663    1.0  0.65000  0.60000  0.55000  1.0000
  Pt  Pt2664    1.0  0.65000  0.65000  0.50000  1.0000
  Pt  Pt2665    1.0  0.60000  0.60000  0.60000  1.0000
  Pt  Pt2666    1.0  0.60000  0.65000  0.65000  1.0000
  Pt  Pt2667    1.0  0.65000  0.60000  0.65000  1.0000
  Pt  Pt2668    1.0  0.65000  0.65000  0.60000  1.0000
  Pt  Pt2669    1.0  0.60000  0.60000  0.70000  1.0000
  Pt  Pt2670    1.0  0.60000  0.65000  0.75000  1.0000
  Pt  Pt2671    1.0  0.65000  0.60000  0.75000  1.0000
  Pt  Pt2672    1.0  0.65000  0.65000  0.70000  1.0000
  Pt  Pt2673    1.0  0.60000  0.60000  0.80000  1.0000
  Pt  Pt2674    1.0  0.60000  0.65000  0.85000  1.0000
  Pt  Pt2675    1.0  0.65000  0.60000  0.85000  1.0000
  Pt  Pt2676    1.0  0.65000  0.65000  0.80000  1.0000
  Pt  Pt2677    1.0  0.60000  0.60000  0.90000  1.0000
  Pt  Pt2678    1.0  0.60000  0.65000  0.95000  1.0000
  Pt  Pt2679    1.0  0.65000  0.60000  0.95000  1.0000
  Pt  Pt2680    1.0  0.65000  0.65000  0.90000  1.0000
  Pt  Pt2681    1.0  0.60000  0.70000  0.00000  1.0000
  Pt  Pt2682    1.0  0.60000  0.75000  0.05000  1.0000
  Pt  Pt2683    1.0  0.65000  0.70000  0.05000  1.0000
  Pt  Pt2684    1.0  0.65000  0.75000  0.00000  1.0000
  Pt  Pt2685    1.0  0.60000  0.70000  0.10000  1.0000
  Pt  Pt2686    1.0  0.60000  0.75000  0.15000  1.0000
  Pt  Pt2687    1.0  0.65000  0.70000  0.15000  1.0000
  Pt  Pt2688    1.0  0.65000  0.75000  0.10000  1.0000
  Pt  Pt2689    1.0  0.60000  0.70000  0.20000  1.0000
  Pt  Pt2690    1.0  0.60000  0.75000  0.25000  1.0000
  Pt  Pt2691    1.0  0.65000  0.70000  0.25000  1.0000
  Pt  Pt2692    1.0  0.65000  0.75000  0.20000  1.0000
  Pt  Pt2693    1.0  0.60000  0.70000  0.30000  1.0000
  Pt  Pt2694    1.0  0.60000  0.75000  0.35000  1.0000
  Pt  Pt2695    1.0  0.65000  0.70000  0.35000  1.0000
  Pt  Pt2696    1.0  0.65000  0.75000  0.30000  1.0000
  Pt  Pt2697    1.0  0.60000  0.70000  0.40000  1.0000
  Pt  Pt2698    1.0  0.60000  0.75000  0.45000  1.0000
  Pt  Pt2699    1.0  0.65000  0.70000  0.45000  1.0000
  Pt  Pt2700    1.0  0.65000  0.75000  0.40000  1.0000
  Pt  Pt2701    1.0  0.60000  0.70000  0.50000  1.0000
  Pt  Pt2702    1.0  0.60000  0.75000  0.55000  1.0000
  Pt  Pt2703    1.0  0.65000  0.70000  0.55000  1.0000
  Pt  Pt2704    1.0  0.65000  0.75000  0.50000  1.0000
  Pt  Pt2705    1.0  0.60000  0.70000  0.60000  1.0000
  Pt  Pt2706    1.0  0.60000  0.75000  0.65000  1.0000
  Pt  Pt2707    1.0  0.65000  0.70000  0.65000  1.0000
  Pt  Pt2708    1.0  0.65000  0.75000  0.60000  1.0000
  Pt  Pt2709    1.0  0.60000  0.70000  0.70000  1.0000
  Pt  Pt2710    1.0  0.60000  0.75000  0.75000  1.0000
  Pt  Pt2711    1.0  0.65000  0.70000  0.75000  1.0000
  Pt  Pt2712    1.0  0.65000  0.75000  0.70000  1.0000
  Pt  Pt2713    1.0  0.60000  0.70000  0.80000  1.0000
  Pt  Pt2714    1.0  0.60000  0.75000  0.85000  1.0000
  Pt  Pt2715    1.0  0.65000  0.70000  0.85000  1.0000
  Pt  Pt2716    1.0  0.65000  0.75000  0.80000  1.0000
  Pt  Pt2717    1.0  0.60000  0.70000  0.90000  1.0000
  Pt  Pt2718    1.0  0.60000  0.75000  0.95000  1.0000
  Pt  Pt2719    1.0  0.65000  0.70000  0.95000  1.0000
  Pt  Pt2720    1.0  0.65000  0.75000  0.90000  1.0000
  Pt  Pt2721    1.0  0.60000  0.80000  0.00000  1.0000
  Pt  Pt2722    1.0  0.60000  0.85000  0.05000  1.0000
  Pt  Pt2723    1.0  0.65000  0.80000  0.05000  1.0000
  Pt  Pt2724    1.0  0.65000  0.85000  0.00000  1.0000
  Pt  Pt2725    1.0  0.60000  0.80000  0.10000  1.0000
  Pt  Pt2726    1.0  0.60000  0.85000  0.15000  1.0000
  Pt  Pt2727    1.0  0.65000  0.80000  0.15000  1.0000
  Pt  Pt2728    1.0  0.65000  0.85000  0.10000  1.0000
  Pt  Pt2729    1.0  0.60000  0.80000  0.20000  1.0000
  Pt  Pt2730    1.0  0.60000  0.85000  0.25000  1.0000
  Pt  Pt2731    1.0  0.65000  0.80000  0.25000  1.0000
  Pt  Pt2732    1.0  0.65000  0.85000  0.20000  1.0000
  Pt  Pt2733    1.0  0.60000  0.80000  0.30000  1.0000
  Pt  Pt2734    1.0  0.60000  0.85000  0.35000  1.0000
  Pt  Pt2735    1.0  0.65000  0.80000  0.35000  1.0000
  Pt  Pt2736    1.0  0.65000  0.85000  0.30000  1.0000
  Pt  Pt2737    1.0  0.60000  0.80000  0.40000  1.0000
  Pt  Pt2738    1.0  0.60000  0.85000  0.45000  1.0000
  Pt  Pt2739    1.0  0.65000  0.80000  0.45000  1.0000
  Pt  Pt2740    1.0  0.65000  0.85000  0.40000  1.0000
  Pt  Pt2741    1.0  0.60000  0.80000  0.50000  1.0000
  Pt  Pt2742    1.0  0.60000  0.85000  0.55000  1.0000
  Pt  Pt2743    1.0  0.65000  0.80000  0.55000  1.0000
  Pt  Pt2744    1.0  0.65000  0.85000  0.50000  1.0000
  Pt  Pt2745    1.0  0.60000  0.80000  0.60000  1.0000
  Pt  Pt2746    1.0  0.60000  0.85000  0.65000  1.0000
  Pt  Pt2747    1.0  0.65000  0.80000  0.65000  1.0000
  Pt  Pt2748    1.0  0.65000  0.85000  0.60000  1.0000
  Pt  Pt2749    1.0  0.60000  0.80000  0.70000  1.0000
  Pt  Pt2750    1.0  0.60000  0.85000  0.75000  1.0000
  Pt  Pt2751    1.0  0.65000  0.80000  0.75000  1.0000
  Pt  Pt2752    1.0  0.65000  0.85000  0.70000  1.0000
  Pt  Pt2753    1.0  0.60000  0.80000  0.80000  1.0000
  Pt  Pt2754    1.0  0.60000  0.85000  0.85000  1.0000
  Pt  Pt2755    1.0  0.65000  0.80000  0.85000  1.0000
  Pt  Pt2756    1.0  0.65000  0.85000  0.80000  1.0000
  Pt  Pt2757    1.0  0.60000  0.80000  0.90000  1.0000
  Pt  Pt2758    1.0  0.60000  0.85000  0.95000  1.0000
  Pt  Pt2759    1.0  0.65000  0.80000  0.95000  1.0000
  Pt  Pt2760    1.0  0.65000  0.85000  0.90000  1.0000
  Pt  Pt2761    1.0  0.60000  0.90000  0.00000  1.0000
  Pt  Pt2762    1.0  0.60000  0.95000  0.05000  1.0000
  Pt  Pt2763    1.0  0.65000  0.90000  0.05000  1.0000
  Pt  Pt2764    1.0  0.65000  0.95000  0.00000  1.0000
  Pt  Pt2765    1.0  0.60000  0.90000  0.10000  1.0000
  Pt  Pt2766    1.0  0.60000  0.95000  0.15000  1.0000
  Pt  Pt2767    1.0  0.65000  0.90000  0.15000  1.0000
  Pt  Pt2768    1.0  0.65000  0.95000  0.10000  1.0000
  Pt  Pt2769    1.0  0.60000  0.90000  0.20000  1.0000
  Pt  Pt2770    1.0  0.60000  0.95000  0.25000  1.0000
  Pt  Pt2771    1.0  0.65000  0.90000  0.25000  1.0000
  Pt  Pt2772    1.0  0.65000  0.95000  0.20000  1.0000
  Pt  Pt2773    1.0  0.60000  0.90000  0.30000  1.0000
  Pt  Pt2774    1.0  0.60000  0.95000  0.35000  1.0000
  Pt  Pt2775    1.0  0.65000  0.90000  0.35000  1.0000
  Pt  Pt2776    1.0  0.65000  0.95000  0.30000  1.0000
  Pt  Pt2777    1.0  0.60000  0.90000  0.40000  1.0000
  Pt  Pt2778    1.0  0.60000  0.95000  0.45000  1.0000
  Pt  Pt2779    1.0  0.65000  0.90000  0.45000  1.0000
  Pt  Pt2780    1.0  0.65000  0.95000  0.40000  1.0000
  Pt  Pt2781    1.0  0.60000  0.90000  0.50000  1.0000
  Pt  Pt2782    1.0  0.60000  0.95000  0.55000  1.0000
  Pt  Pt2783    1.0  0.65000  0.90000  0.55000  1.0000
  Pt  Pt2784    1.0  0.65000  0.95000  0.50000  1.0000
  Pt  Pt2785    1.0  0.60000  0.90000  0.60000  1.0000
  Pt  Pt2786    1.0  0.60000  0.95000  0.65000  1.0000
  Pt  Pt2787    1.0  0.65000  0.90000  0.65000  1.0000
  Pt  Pt2788    1.0  0.65000  0.95000  0.60000  1.0000
  Pt  Pt2789    1.0  0.60000  0.90000  0.70000  1.0000
  Pt  Pt2790    1.0  0.60000  0.95000  0.75000  1.0000
  Pt  Pt2791    1.0  0.65000  0.90000  0.75000  1.0000
  Pt  Pt2792    1.0  0.65000  0.95000  0.70000  1.0000
  Pt  Pt2793    1.0  0.60000  0.90000  0.80000  1.0000
  Pt  Pt2794    1.0  0.60000  0.95000  0.85000  1.0000
  Pt  Pt2795    1.0  0.65000  0.90000  0.85000  1.0000
  Pt  Pt2796    1.0  0.65000  0.95000  0.80000  1.0000
  Pt  Pt2797    1.0  0.60000  0.90000  0.90000  1.0000
  Pt  Pt2798    1.0  0.60000  0.95000  0.95000  1.0000
  Pt  Pt2799    1.0  0.65000  0.90000  0.95000  1.0000
  Pt  Pt2800    1.0  0.65000  0.95000  0.90000  1.0000
  Pt  Pt2801    1.0  0.70000  0.00000  0.00000  1.0000
  Pt  Pt2802    1.0  0.70000  0.05000  0.05000  1.0000
  Pt  Pt2803    1.0  0.75000  0.00000  0.05000  1.0000
  Pt  Pt2804    1.0  0.75000  0.05000  0.00000  1.0000
  Pt  Pt2805    1.0  0.70000  0.00000  0.10000  1.0000
  Pt  Pt2806    1.0  0.70000  0.05000  0.15000  1.0000
  Pt  Pt2807    1.0  0.75000  0.00000  0.15000  1.0000
  Pt  Pt2808    1.0  0.75000  0.05000  0.10000  1.0000
  Pt  Pt2809    1.0  0.70000  0.00000  0.20000  1.0000
  Pt  Pt2810    1.0  0.70000  0.05000  0.25000  1.0000
  Pt  Pt2811    1.0  0.75000  0.00000  0.25000  1.0000
  Pt  Pt2812    1.0  0.75000  0.05000  0.20000  1.0000
  Pt  Pt2813    1.0  0.70000  0.00000  0.30000  1.0000
  Pt  Pt2814    1.0  0.70000  0.05000  0.35000  1.0000
  Pt  Pt2815    1.0  0.75000  0.00000  0.35000  1.0000
  Pt  Pt2816    1.0  0.75000  0.05000  0.30000  1.0000
  Pt  Pt2817    1.0  0.70000  0.00000  0.40000  1.0000
  Pt  Pt2818    1.0  0.70000  0.05000  0.45000  1.0000
  Pt  Pt2819    1.0  0.75000  0.00000  0.45000  1.0000
  Pt  Pt2820    1.0  0.75000  0.05000  0.40000  1.0000
  Pt  Pt2821    1.0  0.70000  0.00000  0.50000  1.0000
  Pt  Pt2822    1.0  0.70000  0.05000  0.55000  1.0000
  Pt  Pt2823    1.0  0.75000  0.00000  0.55000  1.0000
  Pt  Pt2824    1.0  0.75000  0.05000  0.50000  1.0000
  Pt  Pt2825    1.0  0.70000  0.00000  0.60000  1.0000
  Pt  Pt2826    1.0  0.70000  0.05000  0.65000  1.0000
  Pt  Pt2827    1.0  0.75000  0.00000  0.65000  1.0000
  Pt  Pt2828    1.0  0.75000  0.05000  0.60000  1.0000
  Pt  Pt2829    1.0  0.70000  0.00000  0.70000  1.0000
  Pt  Pt2830    1.0  0.70000  0.05000  0.75000  1.0000
  Pt  Pt2831    1.0  0.75000  0.00000  0.75000  1.0000
  Pt  Pt2832    1.0  0.75000  0.05000  0.70000  1.0000
  Pt  Pt2833    1.0  0.70000  0.00000  0.80000  1.0000
  Pt  Pt2834    1.0  0.70000  0.05000  0.85000  1.0000
  Pt  Pt2835    1.0  0.75000  0.00000  0.85000  1.0000
  Pt  Pt2836    1.0  0.75000  0.05000  0.80000  1.0000
  Pt  Pt2837    1.0  0.70000  0.00000  0.90000  1.0000
  Pt  Pt2838    1.0  0.70000  0.05000  0.95000  1.0000
  Pt  Pt2839    1.0  0.75000  0.00000  0.95000  1.0000
  Pt  Pt2840    1.0  0.75000  0.05000  0.90000  1.0000
  Pt  Pt2841    1.0  0.70000  0.10000  0.00000  1.0000
  Pt  Pt2842    1.0  0.70000  0.15000  0.05000  1.0000
  Pt  Pt2843    1.0  0.75000  0.10000  0.05000  1.0000
  Pt  Pt2844    1.0  0.75000  0.15000  0.00000  1.0000
  Pt  Pt2845    1.0  0.70000  0.10000  0.10000  1.0000
  Pt  Pt2846    1.0  0.70000  0.15000  0.15000  1.0000
  Pt  Pt2847    1.0  0.75000  0.10000  0.15000  1.0000
  Pt  Pt2848    1.0  0.75000  0.15000  0.10000  1.0000
  Pt  Pt2849    1.0  0.70000  0.10000  0.20000  1.0000
  Pt  Pt2850    1.0  0.70000  0.15000  0.25000  1.0000
  Pt  Pt2851    1.0  0.75000  0.10000  0.25000  1.0000
  Pt  Pt2852    1.0  0.75000  0.15000  0.20000  1.0000
  Pt  Pt2853    1.0  0.70000  0.10000  0.30000  1.0000
  Pt  Pt2854    1.0  0.70000  0.15000  0.35000  1.0000
  Pt  Pt2855    1.0  0.75000  0.10000  0.35000  1.0000
  Pt  Pt2856    1.0  0.75000  0.15000  0.30000  1.0000
  Pt  Pt2857    1.0  0.70000  0.10000  0.40000  1.0000
  Pt  Pt2858    1.0  0.70000  0.15000  0.45000  1.0000
  Pt  Pt2859    1.0  0.75000  0.10000  0.45000  1.0000
  Pt  Pt2860    1.0  0.75000  0.15000  0.40000  1.0000
  Pt  Pt2861    1.0  0.70000  0.10000  0.50000  1.0000
  Pt  Pt2862    1.0  0.70000  0.15000  0.55000  1.0000
  Pt  Pt2863    1.0  0.75000  0.10000  0.55000  1.0000
  Pt  Pt2864    1.0  0.75000  0.15000  0.50000  1.0000
  Pt  Pt2865    1.0  0.70000  0.10000  0.60000  1.0000
  Pt  Pt2866    1.0  0.70000  0.15000  0.65000  1.0000
  Pt  Pt2867    1.0  0.75000  0.10000  0.65000  1.0000
  Pt  Pt2868    1.0  0.75000  0.15000  0.60000  1.0000
  Pt  Pt2869    1.0  0.70000  0.10000  0.70000  1.0000
  Pt  Pt2870    1.0  0.70000  0.15000  0.75000  1.0000
  Pt  Pt2871    1.0  0.75000  0.10000  0.75000  1.0000
  Pt  Pt2872    1.0  0.75000  0.15000  0.70000  1.0000
  Pt  Pt2873    1.0  0.70000  0.10000  0.80000  1.0000
  Pt  Pt2874    1.0  0.70000  0.15000  0.85000  1.0000
  Pt  Pt2875    1.0  0.75000  0.10000  0.85000  1.0000
  Pt  Pt2876    1.0  0.75000  0.15000  0.80000  1.0000
  Pt  Pt2877    1.0  0.70000  0.10000  0.90000  1.0000
  Pt  Pt2878    1.0  0.70000  0.15000  0.95000  1.0000
  Pt  Pt2879    1.0  0.75000  0.10000  0.95000  1.0000
  Pt  Pt2880    1.0  0.75000  0.15000  0.90000  1.0000
  Pt  Pt2881    1.0  0.70000  0.20000  0.00000  1.0000
  Pt  Pt2882    1.0  0.70000  0.25000  0.05000  1.0000
  Pt  Pt2883    1.0  0.75000  0.20000  0.05000  1.0000
  Pt  Pt2884    1.0  0.75000  0.25000  0.00000  1.0000
  Pt  Pt2885    1.0  0.70000  0.20000  0.10000  1.0000
  Pt  Pt2886    1.0  0.70000  0.25000  0.15000  1.0000
  Pt  Pt2887    1.0  0.75000  0.20000  0.15000  1.0000
  Pt  Pt2888    1.0  0.75000  0.25000  0.10000  1.0000
  Pt  Pt2889    1.0  0.70000  0.20000  0.20000  1.0000
  Pt  Pt2890    1.0  0.70000  0.25000  0.25000  1.0000
  Pt  Pt2891    1.0  0.75000  0.20000  0.25000  1.0000
  Pt  Pt2892    1.0  0.75000  0.25000  0.20000  1.0000
  Pt  Pt2893    1.0  0.70000  0.20000  0.30000  1.0000
  Pt  Pt2894    1.0  0.70000  0.25000  0.35000  1.0000
  Pt  Pt2895    1.0  0.75000  0.20000  0.35000  1.0000
  Pt  Pt2896    1.0  0.75000  0.25000  0.30000  1.0000
  Pt  Pt2897    1.0  0.70000  0.20000  0.40000  1.0000
  Pt  Pt2898    1.0  0.70000  0.25000  0.45000  1.0000
  Pt  Pt2899    1.0  0.75000  0.20000  0.45000  1.0000
  Pt  Pt2900    1.0  0.75000  0.25000  0.40000  1.0000
  Pt  Pt2901    1.0  0.70000  0.20000  0.50000  1.0000
  Pt  Pt2902    1.0  0.70000  0.25000  0.55000  1.0000
  Pt  Pt2903    1.0  0.75000  0.20000  0.55000  1.0000
  Pt  Pt2904    1.0  0.75000  0.25000  0.50000  1.0000
  Pt  Pt2905    1.0  0.70000  0.20000  0.60000  1.0000
  Pt  Pt2906    1.0  0.70000  0.25000  0.65000  1.0000
  Pt  Pt2907    1.0  0.75000  0.20000  0.65000  1.0000
  Pt  Pt2908    1.0  0.75000  0.25000  0.60000  1.0000
  Pt  Pt2909    1.0  0.70000  0.20000  0.70000  1.0000
  Pt  Pt2910    1.0  0.70000  0.25000  0.75000  1.0000
  Pt  Pt2911    1.0  0.75000  0.20000  0.75000  1.0000
  Pt  Pt2912    1.0  0.75000  0.25000  0.70000  1.0000
  Pt  Pt2913    1.0  0.70000  0.20000  0.80000  1.0000
  Pt  Pt2914    1.0  0.70000  0.25000  0.85000  1.0000
  Pt  Pt2915    1.0  0.75000  0.20000  0.85000  1.0000
  Pt  Pt2916    1.0  0.75000  0.25000  0.80000  1.0000
  Pt  Pt2917    1.0  0.70000  0.20000  0.90000  1.0000
  Pt  Pt2918    1.0  0.70000  0.25000  0.95000  1.0000
  Pt  Pt2919    1.0  0.75000  0.20000  0.95000  1.0000
  Pt  Pt2920    1.0  0.75000  0.25000  0.90000  1.0000
  Pt  Pt2921    1.0  0.70000  0.30000  0.00000  1.0000
  Pt  Pt2922    1.0  0.70000  0.35000  0.05000  1.0000
  Pt  Pt2923    1.0  0.75000  0.30000  0.05000  1.0000
  Pt  Pt2924    1.0  0.75000  0.35000  0.00000  1.0000
  Pt  Pt2925    1.0  0.70000  0.30000  0.10000  1.0000
  Pt  Pt2926    1.0  0.70000  0.35000  0.15000  1.0000
  Pt  Pt2927    1.0  0.75000  0.30000  0.15000  1.0000
  Pt  Pt2928    1.0  0.75000  0.35000  0.10000  1.0000
  Pt  Pt2929    1.0  0.70000  0.30000  0.20000  1.0000
  Pt  Pt2930    1.0  0.70000  0.35000  0.25000  1.0000
  Pt  Pt2931    1.0  0.75000  0.30000  0.25000  1.0000
  Pt  Pt2932    1.0  0.75000  0.35000  0.20000  1.0000
  Pt  Pt2933    1.0  0.70000  0.30000  0.30000  1.0000
  Pt  Pt2934    1.0  0.70000  0.35000  0.35000  1.0000
  Pt  Pt2935    1.0  0.75000  0.30000  0.35000  1.0000
  Pt  Pt2936    1.0  0.75000  0.35000  0.30000  1.0000
  Pt  Pt2937    1.0  0.70000  0.30000  0.40000  1.0000
  Pt  Pt2938    1.0  0.70000  0.35000  0.45000  1.0000
  Pt  Pt2939    1.0  0.75000  0.30000  0.45000  1.0000
  Pt  Pt2940    1.0  0.75000  0.35000  0.40000  1.0000
  Pt  Pt2941    1.0  0.70000  0.30000  0.50000  1.0000
  Pt  Pt2942    1.0  0.70000  0.35000  0.55000  1.0000
  Pt  Pt2943    1.0  0.75000  0.30000  0.55000  1.0000
  Pt  Pt2944    1.0  0.75000  0.35000  0.50000  1.0000
  Pt  Pt2945    1.0  0.70000  0.30000  0.60000  1.0000
  Pt  Pt2946    1.0  0.70000  0.35000  0.65000  1.0000
  Pt  Pt2947    1.0  0.75000  0.30000  0.65000  1.0000
  Pt  Pt2948    1.0  0.75000  0.35000  0.60000  1.0000
  Pt  Pt2949    1.0  0.70000  0.30000  0.70000  1.0000
  Pt  Pt2950    1.0  0.70000  0.35000  0.75000  1.0000
  Pt  Pt2951    1.0  0.75000  0.30000  0.75000  1.0000
  Pt  Pt2952    1.0  0.75000  0.35000  0.70000  1.0000
  Pt  Pt2953    1.0  0.70000  0.30000  0.80000  1.0000
  Pt  Pt2954    1.0  0.70000  0.35000  0.85000  1.0000
  Pt  Pt2955    1.0  0.75000  0.30000  0.85000  1.0000
  Pt  Pt2956    1.0  0.75000  0.35000  0.80000  1.0000
  Pt  Pt2957    1.0  0.70000  0.30000  0.90000  1.0000
  Pt  Pt2958    1.0  0.70000  0.35000  0.95000  1.0000
  Pt  Pt2959    1.0  0.75000  0.30000  0.95000  1.0000
  Pt  Pt2960    1.0  0.75000  0.35000  0.90000  1.0000
  Pt  Pt2961    1.0  0.70000  0.40000  0.00000  1.0000
  Pt  Pt2962    1.0  0.70000  0.45000  0.05000  1.0000
  Pt  Pt2963    1.0  0.75000  0.40000  0.05000  1.0000
  Pt  Pt2964    1.0  0.75000  0.45000  0.00000  1.0000
  Pt  Pt2965    1.0  0.70000  0.40000  0.10000  1.0000
  Pt  Pt2966    1.0  0.70000  0.45000  0.15000  1.0000
  Pt  Pt2967    1.0  0.75000  0.40000  0.15000  1.0000
  Pt  Pt2968    1.0  0.75000  0.45000  0.10000  1.0000
  Pt  Pt2969    1.0  0.70000  0.40000  0.20000  1.0000
  Pt  Pt2970    1.0  0.70000  0.45000  0.25000  1.0000
  Pt  Pt2971    1.0  0.75000  0.40000  0.25000  1.0000
  Pt  Pt2972    1.0  0.75000  0.45000  0.20000  1.0000
  Pt  Pt2973    1.0  0.70000  0.40000  0.30000  1.0000
  Pt  Pt2974    1.0  0.70000  0.45000  0.35000  1.0000
  Pt  Pt2975    1.0  0.75000  0.40000  0.35000  1.0000
  Pt  Pt2976    1.0  0.75000  0.45000  0.30000  1.0000
  Pt  Pt2977    1.0  0.70000  0.40000  0.40000  1.0000
  Pt  Pt2978    1.0  0.70000  0.45000  0.45000  1.0000
  Pt  Pt2979    1.0  0.75000  0.40000  0.45000  1.0000
  Pt  Pt2980    1.0  0.75000  0.45000  0.40000  1.0000
  Pt  Pt2981    1.0  0.70000  0.40000  0.50000  1.0000
  Pt  Pt2982    1.0  0.70000  0.45000  0.55000  1.0000
  Pt  Pt2983    1.0  0.75000  0.40000  0.55000  1.0000
  Pt  Pt2984    1.0  0.75000  0.45000  0.50000  1.0000
  Pt  Pt2985    1.0  0.70000  0.40000  0.60000  1.0000
  Pt  Pt2986    1.0  0.70000  0.45000  0.65000  1.0000
  Pt  Pt2987    1.0  0.75000  0.40000  0.65000  1.0000
  Pt  Pt2988    1.0  0.75000  0.45000  0.60000  1.0000
  Pt  Pt2989    1.0  0.70000  0.40000  0.70000  1.0000
  Pt  Pt2990    1.0  0.70000  0.45000  0.75000  1.0000
  Pt  Pt2991    1.0  0.75000  0.40000  0.75000  1.0000
  Pt  Pt2992    1.0  0.75000  0.45000  0.70000  1.0000
  Pt  Pt2993    1.0  0.70000  0.40000  0.80000  1.0000
  Pt  Pt2994    1.0  0.70000  0.45000  0.85000  1.0000
  Pt  Pt2995    1.0  0.75000  0.40000  0.85000  1.0000
  Pt  Pt2996    1.0  0.75000  0.45000  0.80000  1.0000
  Pt  Pt2997    1.0  0.70000  0.40000  0.90000  1.0000
  Pt  Pt2998    1.0  0.70000  0.45000  0.95000  1.0000
  Pt  Pt2999    1.0  0.75000  0.40000  0.95000  1.0000
  Pt  Pt3000    1.0  0.75000  0.45000  0.90000  1.0000
  Pt  Pt3001    1.0  0.70000  0.50000  0.00000  1.0000
  Pt  Pt3002    1.0  0.70000  0.55000  0.05000  1.0000
  Pt  Pt3003    1.0  0.75000  0.50000  0.05000  1.0000
  Pt  Pt3004    1.0  0.75000  0.55000  0.00000  1.0000
  Pt  Pt3005    1.0  0.70000  0.50000  0.10000  1.0000
  Pt  Pt3006    1.0  0.70000  0.55000  0.15000  1.0000
  Pt  Pt3007    1.0  0.75000  0.50000  0.15000  1.0000
  Pt  Pt3008    1.0  0.75000  0.55000  0.10000  1.0000
  Pt  Pt3009    1.0  0.70000  0.50000  0.20000  1.0000
  Pt  Pt3010    1.0  0.70000  0.55000  0.25000  1.0000
  Pt  Pt3011    1.0  0.75000  0.50000  0.25000  1.0000
  Pt  Pt3012    1.0  0.75000  0.55000  0.20000  1.0000
  Pt  Pt3013    1.0  0.70000  0.50000  0.30000  1.0000
  Pt  Pt3014    1.0  0.70000  0.55000  0.35000  1.0000
  Pt  Pt3015    1.0  0.75000  0.50000  0.35000  1.0000
  Pt  Pt3016    1.0  0.75000  0.55000  0.30000  1.0000
  Pt  Pt3017    1.0  0.70000  0.50000  0.40000  1.0000
  Pt  Pt3018    1.0  0.70000  0.55000  0.45000  1.0000
  Pt  Pt3019    1.0  0.75000  0.50000  0.45000  1.0000
  Pt  Pt3020    1.0  0.75000  0.55000  0.40000  1.0000
  Pt  Pt3021    1.0  0.70000  0.50000  0.50000  1.0000
  Pt  Pt3022    1.0  0.70000  0.55000  0.55000  1.0000
  Pt  Pt3023    1.0  0.75000  0.50000  0.55000  1.0000
  Pt  Pt3024    1.0  0.75000  0.55000  0.50000  1.0000
  Pt  Pt3025    1.0  0.70000  0.50000  0.60000  1.0000
  Pt  Pt3026    1.0  0.70000  0.55000  0.65000  1.0000
  Pt  Pt3027    1.0  0.75000  0.50000  0.65000  1.0000
  Pt  Pt3028    1.0  0.75000  0.55000  0.60000  1.0000
  Pt  Pt3029    1.0  0.70000  0.50000  0.70000  1.0000
  Pt  Pt3030    1.0  0.70000  0.55000  0.75000  1.0000
  Pt  Pt3031    1.0  0.75000  0.50000  0.75000  1.0000
  Pt  Pt3032    1.0  0.75000  0.55000  0.70000  1.0000
  Pt  Pt3033    1.0  0.70000  0.50000  0.80000  1.0000
  Pt  Pt3034    1.0  0.70000  0.55000  0.85000  1.0000
  Pt  Pt3035    1.0  0.75000  0.50000  0.85000  1.0000
  Pt  Pt3036    1.0  0.75000  0.55000  0.80000  1.0000
  Pt  Pt3037    1.0  0.70000  0.50000  0.90000  1.0000
  Pt  Pt3038    1.0  0.70000  0.55000  0.95000  1.0000
  Pt  Pt3039    1.0  0.75000  0.50000  0.95000  1.0000
  Pt  Pt3040    1.0  0.75000  0.55000  0.90000  1.0000
  Pt  Pt3041    1.0  0.70000  0.60000  0.00000  1.0000
  Pt  Pt3042    1.0  0.70000  0.65000  0.05000  1.0000
  Pt  Pt3043    1.0  0.75000  0.60000  0.05000  1.0000
  Pt  Pt3044    1.0  0.75000  0.65000  0.00000  1.0000
  Pt  Pt3045    1.0  0.70000  0.60000  0.10000  1.0000
  Pt  Pt3046    1.0  0.70000  0.65000  0.15000  1.0000
  Pt  Pt3047    1.0  0.75000  0.60000  0.15000  1.0000
  Pt  Pt3048    1.0  0.75000  0.65000  0.10000  1.0000
  Pt  Pt3049    1.0  0.70000  0.60000  0.20000  1.0000
  Pt  Pt3050    1.0  0.70000  0.65000  0.25000  1.0000
  Pt  Pt3051    1.0  0.75000  0.60000  0.25000  1.0000
  Pt  Pt3052    1.0  0.75000  0.65000  0.20000  1.0000
  Pt  Pt3053    1.0  0.70000  0.60000  0.30000  1.0000
  Pt  Pt3054    1.0  0.70000  0.65000  0.35000  1.0000
  Pt  Pt3055    1.0  0.75000  0.60000  0.35000  1.0000
  Pt  Pt3056    1.0  0.75000  0.65000  0.30000  1.0000
  Pt  Pt3057    1.0  0.70000  0.60000  0.40000  1.0000
  Pt  Pt3058    1.0  0.70000  0.65000  0.45000  1.0000
  Pt  Pt3059    1.0  0.75000  0.60000  0.45000  1.0000
  Pt  Pt3060    1.0  0.75000  0.65000  0.40000  1.0000
  Pt  Pt3061    1.0  0.70000  0.60000  0.50000  1.0000
  Pt  Pt3062    1.0  0.70000  0.65000  0.55000  1.0000
  Pt  Pt3063    1.0  0.75000  0.60000  0.55000  1.0000
  Pt  Pt3064    1.0  0.75000  0.65000  0.50000  1.0000
  Pt  Pt3065    1.0  0.70000  0.60000  0.60000  1.0000
  Pt  Pt3066    1.0  0.70000  0.65000  0.65000  1.0000
  Pt  Pt3067    1.0  0.75000  0.60000  0.65000  1.0000
  Pt  Pt3068    1.0  0.75000  0.65000  0.60000  1.0000
  Pt  Pt3069    1.0  0.70000  0.60000  0.70000  1.0000
  Pt  Pt3070    1.0  0.70000  0.65000  0.75000  1.0000
  Pt  Pt3071    1.0  0.75000  0.60000  0.75000  1.0000
  Pt  Pt3072    1.0  0.75000  0.65000  0.70000  1.0000
  Pt  Pt3073    1.0  0.70000  0.60000  0.80000  1.0000
  Pt  Pt3074    1.0  0.70000  0.65000  0.85000  1.0000
  Pt  Pt3075    1.0  0.75000  0.60000  0.85000  1.0000
  Pt  Pt3076    1.0  0.75000  0.65000  0.80000  1.0000
  Pt  Pt3077    1.0  0.70000  0.60000  0.90000  1.0000
  Pt  Pt3078    1.0  0.70000  0.65000  0.95000  1.0000
  Pt  Pt3079    1.0  0.75000  0.60000  0.95000  1.0000
  Pt  Pt3080    1.0  0.75000  0.65000  0.90000  1.0000
  Pt  Pt3081    1.0  0.70000  0.70000  0.00000  1.0000
  Pt  Pt3082    1.0  0.70000  0.75000  0.05000  1.0000
  Pt  Pt3083    1.0  0.75000  0.70000  0.05000  1.0000
  Pt  Pt3084    1.0  0.75000  0.75000  0.00000  1.0000
  Pt  Pt3085    1.0  0.70000  0.70000  0.10000  1.0000
  Pt  Pt3086    1.0  0.70000  0.75000  0.15000  1.0000
  Pt  Pt3087    1.0  0.75000  0.70000  0.15000  1.0000
  Pt  Pt3088    1.0  0.75000  0.75000  0.10000  1.0000
  Pt  Pt3089    1.0  0.70000  0.70000  0.20000  1.0000
  Pt  Pt3090    1.0  0.70000  0.75000  0.25000  1.0000
  Pt  Pt3091    1.0  0.75000  0.70000  0.25000  1.0000
  Pt  Pt3092    1.0  0.75000  0.75000  0.20000  1.0000
  Pt  Pt3093    1.0  0.70000  0.70000  0.30000  1.0000
  Pt  Pt3094    1.0  0.70000  0.75000  0.35000  1.0000
  Pt  Pt3095    1.0  0.75000  0.70000  0.35000  1.0000
  Pt  Pt3096    1.0  0.75000  0.75000  0.30000  1.0000
  Pt  Pt3097    1.0  0.70000  0.70000  0.40000  1.0000
  Pt  Pt3098    1.0  0.70000  0.75000  0.45000  1.0000
  Pt  Pt3099    1.0  0.75000  0.70000  0.45000  1.0000
  Pt  Pt3100    1.0  0.75000  0.75000  0.40000  1.0000
  Pt  Pt3101    1.0  0.70000  0.70000  0.50000  1.0000
  Pt  Pt3102    1.0  0.70000  0.75000  0.55000  1.0000
  Pt  Pt3103    1.0  0.75000  0.70000  0.55000  1.0000
  Pt  Pt3104    1.0  0.75000  0.75000  0.50000  1.0000
  Pt  Pt3105    1.0  0.70000  0.70000  0.60000  1.0000
  Pt  Pt3106    1.0  0.70000  0.75000  0.65000  1.0000
  Pt  Pt3107    1.0  0.75000  0.70000  0.65000  1.0000
  Pt  Pt3108    1.0  0.75000  0.75000  0.60000  1.0000
  Pt  Pt3109    1.0  0.70000  0.70000  0.70000  1.0000
  Pt  Pt3110    1.0  0.70000  0.75000  0.75000  1.0000
  Pt  Pt3111    1.0  0.75000  0.70000  0.75000  1.0000
  Pt  Pt3112    1.0  0.75000  0.75000  0.70000  1.0000
  Pt  Pt3113    1.0  0.70000  0.70000  0.80000  1.0000
  Pt  Pt3114    1.0  0.70000  0.75000  0.85000  1.0000
  Pt  Pt3115    1.0  0.75000  0.70000  0.85000  1.0000
  Pt  Pt3116    1.0  0.75000  0.75000  0.80000  1.0000
  Pt  Pt3117    1.0  0.70000  0.70000  0.90000  1.0000
  Pt  Pt3118    1.0  0.70000  0.75000  0.95000  1.0000
  Pt  Pt3119    1.0  0.75000  0.70000  0.95000  1.0000
  Pt  Pt3120    1.0  0.75000  0.75000  0.90000  1.0000
  Pt  Pt3121    1.0  0.70000  0.80000  0.00000  1.0000
  Pt  Pt3122    1.0  0.70000  0.85000  0.05000  1.0000
  Pt  Pt3123    1.0  0.75000  0.80000  0.05000  1.0000
  Pt  Pt3124    1.0  0.75000  0.85000  0.00000  1.0000
  Pt  Pt3125    1.0  0.70000  0.80000  0.10000  1.0000
  Pt  Pt3126    1.0  0.70000  0.85000  0.15000  1.0000
  Pt  Pt3127    1.0  0.75000  0.80000  0.15000  1.0000
  Pt  Pt3128    1.0  0.75000  0.85000  0.10000  1.0000
  Pt  Pt3129    1.0  0.70000  0.80000  0.20000  1.0000
  Pt  Pt3130    1.0  0.70000  0.85000  0.25000  1.0000
  Pt  Pt3131    1.0  0.75000  0.80000  0.25000  1.0000
  Pt  Pt3132    1.0  0.75000  0.85000  0.20000  1.0000
  Pt  Pt3133    1.0  0.70000  0.80000  0.30000  1.0000
  Pt  Pt3134    1.0  0.70000  0.85000  0.35000  1.0000
  Pt  Pt3135    1.0  0.75000  0.80000  0.35000  1.0000
  Pt  Pt3136    1.0  0.75000  0.85000  0.30000  1.0000
  Pt  Pt3137    1.0  0.70000  0.80000  0.40000  1.0000
  Pt  Pt3138    1.0  0.70000  0.85000  0.45000  1.0000
  Pt  Pt3139    1.0  0.75000  0.80000  0.45000  1.0000
  Pt  Pt3140    1.0  0.75000  0.85000  0.40000  1.0000
  Pt  Pt3141    1.0  0.70000  0.80000  0.50000  1.0000
  Pt  Pt3142    1.0  0.70000  0.85000  0.55000  1.0000
  Pt  Pt3143    1.0  0.75000  0.80000  0.55000  1.0000
  Pt  Pt3144    1.0  0.75000  0.85000  0.50000  1.0000
  Pt  Pt3145    1.0  0.70000  0.80000  0.60000  1.0000
  Pt  Pt3146    1.0  0.70000  0.85000  0.65000  1.0000
  Pt  Pt3147    1.0  0.75000  0.80000  0.65000  1.0000
  Pt  Pt3148    1.0  0.75000  0.85000  0.60000  1.0000
  Pt  Pt3149    1.0  0.70000  0.80000  0.70000  1.0000
  Pt  Pt3150    1.0  0.70000  0.85000  0.75000  1.0000
  Pt  Pt3151    1.0  0.75000  0.80000  0.75000  1.0000
  Pt  Pt3152    1.0  0.75000  0.85000  0.70000  1.0000
  Pt  Pt3153    1.0  0.70000  0.80000  0.80000  1.0000
  Pt  Pt3154    1.0  0.70000  0.85000  0.85000  1.0000
  Pt  Pt3155    1.0  0.75000  0.80000  0.85000  1.0000
  Pt  Pt3156    1.0  0.75000  0.85000  0.80000  1.0000
  Pt  Pt3157    1.0  0.70000  0.80000  0.90000  1.0000
  Pt  Pt3158    1.0  0.70000  0.85000  0.95000  1.0000
  Pt  Pt3159    1.0  0.75000  0.80000  0.95000  1.0000
  Pt  Pt3160    1.0  0.75000  0.85000  0.90000  1.0000
  Pt  Pt3161    1.0  0.70000  0.90000  0.00000  1.0000
  Pt  Pt3162    1.0  0.70000  0.95000  0.05000  1.0000
  Pt  Pt3163    1.0  0.75000  0.90000  0.05000  1.0000
  Pt  Pt3164    1.0  0.75000  0.95000  0.00000  1.0000
  Pt  Pt3165    1.0  0.70000  0.90000  0.10000  1.0000
  Pt  Pt3166    1.0  0.70000  0.95000  0.15000  1.0000
  Pt  Pt3167    1.0  0.75000  0.90000  0.15000  1.0000
  Pt  Pt3168    1.0  0.75000  0.95000  0.10000  1.0000
  Pt  Pt3169    1.0  0.70000  0.90000  0.20000  1.0000
  Pt  Pt3170    1.0  0.70000  0.95000  0.25000  1.0000
  Pt  Pt3171    1.0  0.75000  0.90000  0.25000  1.0000
  Pt  Pt3172    1.0  0.75000  0.95000  0.20000  1.0000
  Pt  Pt3173    1.0  0.70000  0.90000  0.30000  1.0000
  Pt  Pt3174    1.0  0.70000  0.95000  0.35000  1.0000
  Pt  Pt3175    1.0  0.75000  0.90000  0.35000  1.0000
  Pt  Pt3176    1.0  0.75000  0.95000  0.30000  1.0000
  Pt  Pt3177    1.0  0.70000  0.90000  0.40000  1.0000
  Pt  Pt3178    1.0  0.70000  0.95000  0.45000  1.0000
  Pt  Pt3179    1.0  0.75000  0.90000  0.45000  1.0000
  Pt  Pt3180    1.0  0.75000  0.95000  0.40000  1.0000
  Pt  Pt3181    1.0  0.70000  0.90000  0.50000  1.0000
  Pt  Pt3182    1.0  0.70000  0.95000  0.55000  1.0000
  Pt  Pt3183    1.0  0.75000  0.90000  0.55000  1.0000
  Pt  Pt3184    1.0  0.75000  0.95000  0.50000  1.0000
  Pt  Pt3185    1.0  0.70000  0.90000  0.60000  1.0000
  Pt  Pt3186    1.0  0.70000  0.95000  0.65000  1.0000
  Pt  Pt3187    1.0  0.75000  0.90000  0.65000  1.0000
  Pt  Pt3188    1.0  0.75000  0.95000  0.60000  1.0000
  Pt  Pt3189    1.0  0.70000  0.90000  0.70000  1.0000
  Pt  Pt3190    1.0  0.70000  0.95000  0.75000  1.0000
  Pt  Pt3191    1.0  0.75000  0.90000  0.75000  1.0000
  Pt  Pt3192    1.0  0.75000  0.95000  0.70000  1.0000
  Pt  Pt3193    1.0  0.70000  0.90000  0.80000  1.0000
  Pt  Pt3194    1.0  0.70000  0.95000  0.85000  1.0000
  Pt  Pt3195    1.0  0.75000  0.90000  0.85000  1.0000
  Pt  Pt3196    1.0  0.75000  0.95000  0.80000  1.0000
  Pt  Pt3197    1.0  0.70000  0.90000  0.90000  1.0000
  Pt  Pt3198    1.0  0.70000  0.95000  0.95000  1.0000
  Pt  Pt3199    1.0  0.75000  0.90000  0.95000  1.0000
  Pt  Pt3200    1.0  0.75000  0.95000  0.90000  1.0000
  Pt  Pt3201    1.0  0.80000  0.00000  0.00000  1.0000
  Pt  Pt3202    1.0  0.80000  0.05000  0.05000  1.0000
  Pt  Pt3203    1.0  0.85000  0.00000  0.05000  1.0000
  Pt  Pt3204    1.0  0.85000  0.05000  0.00000  1.0000
  Pt  Pt3205    1.0  0.80000  0.00000  0.10000  1.0000
  Pt  Pt3206    1.0  0.80000  0.05000  0.15000  1.0000
  Pt  Pt3207    1.0  0.85000  0.00000  0.15000  1.0000
  Pt  Pt3208    1.0  0.85000  0.05000  0.10000  1.0000
  Pt  Pt3209    1.0  0.80000  0.00000  0.20000  1.0000
  Pt  Pt3210    1.0  0.80000  0.05000  0.25000  1.0000
  Pt  Pt3211    1.0  0.85000  0.00000  0.25000  1.0000
  Pt  Pt3212    1.0  0.85000  0.05000  0.20000  1.0000
  Pt  Pt3213    1.0  0.80000  0.00000  0.30000  1.0000
  Pt  Pt3214    1.0  0.80000  0.05000  0.35000  1.0000
  Pt  Pt3215    1.0  0.85000  0.00000  0.35000  1.0000
  Pt  Pt3216    1.0  0.85000  0.05000  0.30000  1.0000
  Pt  Pt3217    1.0  0.80000  0.00000  0.40000  1.0000
  Pt  Pt3218    1.0  0.80000  0.05000  0.45000  1.0000
  Pt  Pt3219    1.0  0.85000  0.00000  0.45000  1.0000
  Pt  Pt3220    1.0  0.85000  0.05000  0.40000  1.0000
  Pt  Pt3221    1.0  0.80000  0.00000  0.50000  1.0000
  Pt  Pt3222    1.0  0.80000  0.05000  0.55000  1.0000
  Pt  Pt3223    1.0  0.85000  0.00000  0.55000  1.0000
  Pt  Pt3224    1.0  0.85000  0.05000  0.50000  1.0000
  Pt  Pt3225    1.0  0.80000  0.00000  0.60000  1.0000
  Pt  Pt3226    1.0  0.80000  0.05000  0.65000  1.0000
  Pt  Pt3227    1.0  0.85000  0.00000  0.65000  1.0000
  Pt  Pt3228    1.0  0.85000  0.05000  0.60000  1.0000
  Pt  Pt3229    1.0  0.80000  0.00000  0.70000  1.0000
  Pt  Pt3230    1.0  0.80000  0.05000  0.75000  1.0000
  Pt  Pt3231    1.0  0.85000  0.00000  0.75000  1.0000
  Pt  Pt3232    1.0  0.85000  0.05000  0.70000  1.0000
  Pt  Pt3233    1.0  0.80000  0.00000  0.80000  1.0000
  Pt  Pt3234    1.0  0.80000  0.05000  0.85000  1.0000
  Pt  Pt3235    1.0  0.85000  0.00000  0.85000  1.0000
  Pt  Pt3236    1.0  0.85000  0.05000  0.80000  1.0000
  Pt  Pt3237    1.0  0.80000  0.00000  0.90000  1.0000
  Pt  Pt3238    1.0  0.80000  0.05000  0.95000  1.0000
  Pt  Pt3239    1.0  0.85000  0.00000  0.95000  1.0000
  Pt  Pt3240    1.0  0.85000  0.05000  0.90000  1.0000
  Pt  Pt3241    1.0  0.80000  0.10000  0.00000  1.0000
  Pt  Pt3242    1.0  0.80000  0.15000  0.05000  1.0000
  Pt  Pt3243    1.0  0.85000  0.10000  0.05000  1.0000
  Pt  Pt3244    1.0  0.85000  0.15000  0.00000  1.0000
  Pt  Pt3245    1.0  0.80000  0.10000  0.10000  1.0000
  Pt  Pt3246    1.0  0.80000  0.15000  0.15000  1.0000
  Pt  Pt3247    1.0  0.85000  0.10000  0.15000  1.0000
  Pt  Pt3248    1.0  0.85000  0.15000  0.10000  1.0000
  Pt  Pt3249    1.0  0.80000  0.10000  0.20000  1.0000
  Pt  Pt3250    1.0  0.80000  0.15000  0.25000  1.0000
  Pt  Pt3251    1.0  0.85000  0.10000  0.25000  1.0000
  Pt  Pt3252    1.0  0.85000  0.15000  0.20000  1.0000
  Pt  Pt3253    1.0  0.80000  0.10000  0.30000  1.0000
  Pt  Pt3254    1.0  0.80000  0.15000  0.35000  1.0000
  Pt  Pt3255    1.0  0.85000  0.10000  0.35000  1.0000
  Pt  Pt3256    1.0  0.85000  0.15000  0.30000  1.0000
  Pt  Pt3257    1.0  0.80000  0.10000  0.40000  1.0000
  Pt  Pt3258    1.0  0.80000  0.15000  0.45000  1.0000
  Pt  Pt3259    1.0  0.85000  0.10000  0.45000  1.0000
  Pt  Pt3260    1.0  0.85000  0.15000  0.40000  1.0000
  Pt  Pt3261    1.0  0.80000  0.10000  0.50000  1.0000
  Pt  Pt3262    1.0  0.80000  0.15000  0.55000  1.0000
  Pt  Pt3263    1.0  0.85000  0.10000  0.55000  1.0000
  Pt  Pt3264    1.0  0.85000  0.15000  0.50000  1.0000
  Pt  Pt3265    1.0  0.80000  0.10000  0.60000  1.0000
  Pt  Pt3266    1.0  0.80000  0.15000  0.65000  1.0000
  Pt  Pt3267    1.0  0.85000  0.10000  0.65000  1.0000
  Pt  Pt3268    1.0  0.85000  0.15000  0.60000  1.0000
  Pt  Pt3269    1.0  0.80000  0.10000  0.70000  1.0000
  Pt  Pt3270    1.0  0.80000  0.15000  0.75000  1.0000
  Pt  Pt3271    1.0  0.85000  0.10000  0.75000  1.0000
  Pt  Pt3272    1.0  0.85000  0.15000  0.70000  1.0000
  Pt  Pt3273    1.0  0.80000  0.10000  0.80000  1.0000
  Pt  Pt3274    1.0  0.80000  0.15000  0.85000  1.0000
  Pt  Pt3275    1.0  0.85000  0.10000  0.85000  1.0000
  Pt  Pt3276    1.0  0.85000  0.15000  0.80000  1.0000
  Pt  Pt3277    1.0  0.80000  0.10000  0.90000  1.0000
  Pt  Pt3278    1.0  0.80000  0.15000  0.95000  1.0000
  Pt  Pt3279    1.0  0.85000  0.10000  0.95000  1.0000
  Pt  Pt3280    1.0  0.85000  0.15000  0.90000  1.0000
  Pt  Pt3281    1.0  0.80000  0.20000  0.00000  1.0000
  Pt  Pt3282    1.0  0.80000  0.25000  0.05000  1.0000
  Pt  Pt3283    1.0  0.85000  0.20000  0.05000  1.0000
  Pt  Pt3284    1.0  0.85000  0.25000  0.00000  1.0000
  Pt  Pt3285    1.0  0.80000  0.20000  0.10000  1.0000
  Pt  Pt3286    1.0  0.80000  0.25000  0.15000  1.0000
  Pt  Pt3287    1.0  0.85000  0.20000  0.15000  1.0000
  Pt  Pt3288    1.0  0.85000  0.25000  0.10000  1.0000
  Pt  Pt3289    1.0  0.80000  0.20000  0.20000  1.0000
  Pt  Pt3290    1.0  0.80000  0.25000  0.25000  1.0000
  Pt  Pt3291    1.0  0.85000  0.20000  0.25000  1.0000
  Pt  Pt3292    1.0  0.85000  0.25000  0.20000  1.0000
  Pt  Pt3293    1.0  0.80000  0.20000  0.30000  1.0000
  Pt  Pt3294    1.0  0.80000  0.25000  0.35000  1.0000
  Pt  Pt3295    1.0  0.85000  0.20000  0.35000  1.0000
  Pt  Pt3296    1.0  0.85000  0.25000  0.30000  1.0000
  Pt  Pt3297    1.0  0.80000  0.20000  0.40000  1.0000
  Pt  Pt3298    1.0  0.80000  0.25000  0.45000  1.0000
  Pt  Pt3299    1.0  0.85000  0.20000  0.45000  1.0000
  Pt  Pt3300    1.0  0.85000  0.25000  0.40000  1.0000
  Pt  Pt3301    1.0  0.80000  0.20000  0.50000  1.0000
  Pt  Pt3302    1.0  0.80000  0.25000  0.55000  1.0000
  Pt  Pt3303    1.0  0.85000  0.20000  0.55000  1.0000
  Pt  Pt3304    1.0  0.85000  0.25000  0.50000  1.0000
  Pt  Pt3305    1.0  0.80000  0.20000  0.60000  1.0000
  Pt  Pt3306    1.0  0.80000  0.25000  0.65000  1.0000
  Pt  Pt3307    1.0  0.85000  0.20000  0.65000  1.0000
  Pt  Pt3308    1.0  0.85000  0.25000  0.60000  1.0000
  Pt  Pt3309    1.0  0.80000  0.20000  0.70000  1.0000
  Pt  Pt3310    1.0  0.80000  0.25000  0.75000  1.0000
  Pt  Pt3311    1.0  0.85000  0.20000  0.75000  1.0000
  Pt  Pt3312    1.0  0.85000  0.25000  0.70000  1.0000
  Pt  Pt3313    1.0  0.80000  0.20000  0.80000  1.0000
  Pt  Pt3314    1.0  0.80000  0.25000  0.85000  1.0000
  Pt  Pt3315    1.0  0.85000  0.20000  0.85000  1.0000
  Pt  Pt3316    1.0  0.85000  0.25000  0.80000  1.0000
  Pt  Pt3317    1.0  0.80000  0.20000  0.90000  1.0000
  Pt  Pt3318    1.0  0.80000  0.25000  0.95000  1.0000
  Pt  Pt3319    1.0  0.85000  0.20000  0.95000  1.0000
  Pt  Pt3320    1.0  0.85000  0.25000  0.90000  1.0000
  Pt  Pt3321    1.0  0.80000  0.30000  0.00000  1.0000
  Pt  Pt3322    1.0  0.80000  0.35000  0.05000  1.0000
  Pt  Pt3323    1.0  0.85000  0.30000  0.05000  1.0000
  Pt  Pt3324    1.0  0.85000  0.35000  0.00000  1.0000
  Pt  Pt3325    1.0  0.80000  0.30000  0.10000  1.0000
  Pt  Pt3326    1.0  0.80000  0.35000  0.15000  1.0000
  Pt  Pt3327    1.0  0.85000  0.30000  0.15000  1.0000
  Pt  Pt3328    1.0  0.85000  0.35000  0.10000  1.0000
  Pt  Pt3329    1.0  0.80000  0.30000  0.20000  1.0000
  Pt  Pt3330    1.0  0.80000  0.35000  0.25000  1.0000
  Pt  Pt3331    1.0  0.85000  0.30000  0.25000  1.0000
  Pt  Pt3332    1.0  0.85000  0.35000  0.20000  1.0000
  Pt  Pt3333    1.0  0.80000  0.30000  0.30000  1.0000
  Pt  Pt3334    1.0  0.80000  0.35000  0.35000  1.0000
  Pt  Pt3335    1.0  0.85000  0.30000  0.35000  1.0000
  Pt  Pt3336    1.0  0.85000  0.35000  0.30000  1.0000
  Pt  Pt3337    1.0  0.80000  0.30000  0.40000  1.0000
  Pt  Pt3338    1.0  0.80000  0.35000  0.45000  1.0000
  Pt  Pt3339    1.0  0.85000  0.30000  0.45000  1.0000
  Pt  Pt3340    1.0  0.85000  0.35000  0.40000  1.0000
  Pt  Pt3341    1.0  0.80000  0.30000  0.50000  1.0000
  Pt  Pt3342    1.0  0.80000  0.35000  0.55000  1.0000
  Pt  Pt3343    1.0  0.85000  0.30000  0.55000  1.0000
  Pt  Pt3344    1.0  0.85000  0.35000  0.50000  1.0000
  Pt  Pt3345    1.0  0.80000  0.30000  0.60000  1.0000
  Pt  Pt3346    1.0  0.80000  0.35000  0.65000  1.0000
  Pt  Pt3347    1.0  0.85000  0.30000  0.65000  1.0000
  Pt  Pt3348    1.0  0.85000  0.35000  0.60000  1.0000
  Pt  Pt3349    1.0  0.80000  0.30000  0.70000  1.0000
  Pt  Pt3350    1.0  0.80000  0.35000  0.75000  1.0000
  Pt  Pt3351    1.0  0.85000  0.30000  0.75000  1.0000
  Pt  Pt3352    1.0  0.85000  0.35000  0.70000  1.0000
  Pt  Pt3353    1.0  0.80000  0.30000  0.80000  1.0000
  Pt  Pt3354    1.0  0.80000  0.35000  0.85000  1.0000
  Pt  Pt3355    1.0  0.85000  0.30000  0.85000  1.0000
  Pt  Pt3356    1.0  0.85000  0.35000  0.80000  1.0000
  Pt  Pt3357    1.0  0.80000  0.30000  0.90000  1.0000
  Pt  Pt3358    1.0  0.80000  0.35000  0.95000  1.0000
  Pt  Pt3359    1.0  0.85000  0.30000  0.95000  1.0000
  Pt  Pt3360    1.0  0.85000  0.35000  0.90000  1.0000
  Pt  Pt3361    1.0  0.80000  0.40000  0.00000  1.0000
  Pt  Pt3362    1.0  0.80000  0.45000  0.05000  1.0000
  Pt  Pt3363    1.0  0.85000  0.40000  0.05000  1.0000
  Pt  Pt3364    1.0  0.85000  0.45000  0.00000  1.0000
  Pt  Pt3365    1.0  0.80000  0.40000  0.10000  1.0000
  Pt  Pt3366    1.0  0.80000  0.45000  0.15000  1.0000
  Pt  Pt3367    1.0  0.85000  0.40000  0.15000  1.0000
  Pt  Pt3368    1.0  0.85000  0.45000  0.10000  1.0000
  Pt  Pt3369    1.0  0.80000  0.40000  0.20000  1.0000
  Pt  Pt3370    1.0  0.80000  0.45000  0.25000  1.0000
  Pt  Pt3371    1.0  0.85000  0.40000  0.25000  1.0000
  Pt  Pt3372    1.0  0.85000  0.45000  0.20000  1.0000
  Pt  Pt3373    1.0  0.80000  0.40000  0.30000  1.0000
  Pt  Pt3374    1.0  0.80000  0.45000  0.35000  1.0000
  Pt  Pt3375    1.0  0.85000  0.40000  0.35000  1.0000
  Pt  Pt3376    1.0  0.85000  0.45000  0.30000  1.0000
  Pt  Pt3377    1.0  0.80000  0.40000  0.40000  1.0000
  Pt  Pt3378    1.0  0.80000  0.45000  0.45000  1.0000
  Pt  Pt3379    1.0  0.85000  0.40000  0.45000  1.0000
  Pt  Pt3380    1.0  0.85000  0.45000  0.40000  1.0000
  Pt  Pt3381    1.0  0.80000  0.40000  0.50000  1.0000
  Pt  Pt3382    1.0  0.80000  0.45000  0.55000  1.0000
  Pt  Pt3383    1.0  0.85000  0.40000  0.55000  1.0000
  Pt  Pt3384    1.0  0.85000  0.45000  0.50000  1.0000
  Pt  Pt3385    1.0  0.80000  0.40000  0.60000  1.0000
  Pt  Pt3386    1.0  0.80000  0.45000  0.65000  1.0000
  Pt  Pt3387    1.0  0.85000  0.40000  0.65000  1.0000
  Pt  Pt3388    1.0  0.85000  0.45000  0.60000  1.0000
  Pt  Pt3389    1.0  0.80000  0.40000  0.70000  1.0000
  Pt  Pt3390    1.0  0.80000  0.45000  0.75000  1.0000
  Pt  Pt3391    1.0  0.85000  0.40000  0.75000  1.0000
  Pt  Pt3392    1.0  0.85000  0.45000  0.70000  1.0000
  Pt  Pt3393    1.0  0.80000  0.40000  0.80000  1.0000
  Pt  Pt3394    1.0  0.80000  0.45000  0.85000  1.0000
  Pt  Pt3395    1.0  0.85000  0.40000  0.85000  1.0000
  Pt  Pt3396    1.0  0.85000  0.45000  0.80000  1.0000
  Pt  Pt3397    1.0  0.80000  0.40000  0.90000  1.0000
  Pt  Pt3398    1.0  0.80000  0.45000  0.95000  1.0000
  Pt  Pt3399    1.0  0.85000  0.40000  0.95000  1.0000
  Pt  Pt3400    1.0  0.85000  0.45000  0.90000  1.0000
  Pt  Pt3401    1.0  0.80000  0.50000  0.00000  1.0000
  Pt  Pt3402    1.0  0.80000  0.55000  0.05000  1.0000
  Pt  Pt3403    1.0  0.85000  0.50000  0.05000  1.0000
  Pt  Pt3404    1.0  0.85000  0.55000  0.00000  1.0000
  Pt  Pt3405    1.0  0.80000  0.50000  0.10000  1.0000
  Pt  Pt3406    1.0  0.80000  0.55000  0.15000  1.0000
  Pt  Pt3407    1.0  0.85000  0.50000  0.15000  1.0000
  Pt  Pt3408    1.0  0.85000  0.55000  0.10000  1.0000
  Pt  Pt3409    1.0  0.80000  0.50000  0.20000  1.0000
  Pt  Pt3410    1.0  0.80000  0.55000  0.25000  1.0000
  Pt  Pt3411    1.0  0.85000  0.50000  0.25000  1.0000
  Pt  Pt3412    1.0  0.85000  0.55000  0.20000  1.0000
  Pt  Pt3413    1.0  0.80000  0.50000  0.30000  1.0000
  Pt  Pt3414    1.0  0.80000  0.55000  0.35000  1.0000
  Pt  Pt3415    1.0  0.85000  0.50000  0.35000  1.0000
  Pt  Pt3416    1.0  0.85000  0.55000  0.30000  1.0000
  Pt  Pt3417    1.0  0.80000  0.50000  0.40000  1.0000
  Pt  Pt3418    1.0  0.80000  0.55000  0.45000  1.0000
  Pt  Pt3419    1.0  0.85000  0.50000  0.45000  1.0000
  Pt  Pt3420    1.0  0.85000  0.55000  0.40000  1.0000
  Pt  Pt3421    1.0  0.80000  0.50000  0.50000  1.0000
  Pt  Pt3422    1.0  0.80000  0.55000  0.55000  1.0000
  Pt  Pt3423    1.0  0.85000  0.50000  0.55000  1.0000
  Pt  Pt3424    1.0  0.85000  0.55000  0.50000  1.0000
  Pt  Pt3425    1.0  0.80000  0.50000  0.60000  1.0000
  Pt  Pt3426    1.0  0.80000  0.55000  0.65000  1.0000
  Pt  Pt3427    1.0  0.85000  0.50000  0.65000  1.0000
  Pt  Pt3428    1.0  0.85000  0.55000  0.60000  1.0000
  Pt  Pt3429    1.0  0.80000  0.50000  0.70000  1.0000
  Pt  Pt3430    1.0  0.80000  0.55000  0.75000  1.0000
  Pt  Pt3431    1.0  0.85000  0.50000  0.75000  1.0000
  Pt  Pt3432    1.0  0.85000  0.55000  0.70000  1.0000
  Pt  Pt3433    1.0  0.80000  0.50000  0.80000  1.0000
  Pt  Pt3434    1.0  0.80000  0.55000  0.85000  1.0000
  Pt  Pt3435    1.0  0.85000  0.50000  0.85000  1.0000
  Pt  Pt3436    1.0  0.85000  0.55000  0.80000  1.0000
  Pt  Pt3437    1.0  0.80000  0.50000  0.90000  1.0000
  Pt  Pt3438    1.0  0.80000  0.55000  0.95000  1.0000
  Pt  Pt3439    1.0  0.85000  0.50000  0.95000  1.0000
  Pt  Pt3440    1.0  0.85000  0.55000  0.90000  1.0000
  Pt  Pt3441    1.0  0.80000  0.60000  0.00000  1.0000
  Pt  Pt3442    1.0  0.80000  0.65000  0.05000  1.0000
  Pt  Pt3443    1.0  0.85000  0.60000  0.05000  1.0000
  Pt  Pt3444    1.0  0.85000  0.65000  0.00000  1.0000
  Pt  Pt3445    1.0  0.80000  0.60000  0.10000  1.0000
  Pt  Pt3446    1.0  0.80000  0.65000  0.15000  1.0000
  Pt  Pt3447    1.0  0.85000  0.60000  0.15000  1.0000
  Pt  Pt3448    1.0  0.85000  0.65000  0.10000  1.0000
  Pt  Pt3449    1.0  0.80000  0.60000  0.20000  1.0000
  Pt  Pt3450    1.0  0.80000  0.65000  0.25000  1.0000
  Pt  Pt3451    1.0  0.85000  0.60000  0.25000  1.0000
  Pt  Pt3452    1.0  0.85000  0.65000  0.20000  1.0000
  Pt  Pt3453    1.0  0.80000  0.60000  0.30000  1.0000
  Pt  Pt3454    1.0  0.80000  0.65000  0.35000  1.0000
  Pt  Pt3455    1.0  0.85000  0.60000  0.35000  1.0000
  Pt  Pt3456    1.0  0.85000  0.65000  0.30000  1.0000
  Pt  Pt3457    1.0  0.80000  0.60000  0.40000  1.0000
  Pt  Pt3458    1.0  0.80000  0.65000  0.45000  1.0000
  Pt  Pt3459    1.0  0.85000  0.60000  0.45000  1.0000
  Pt  Pt3460    1.0  0.85000  0.65000  0.40000  1.0000
  Pt  Pt3461    1.0  0.80000  0.60000  0.50000  1.0000
  Pt  Pt3462    1.0  0.80000  0.65000  0.55000  1.0000
  Pt  Pt3463    1.0  0.85000  0.60000  0.55000  1.0000
  Pt  Pt3464    1.0  0.85000  0.65000  0.50000  1.0000
  Pt  Pt3465    1.0  0.80000  0.60000  0.60000  1.0000
  Pt  Pt3466    1.0  0.80000  0.65000  0.65000  1.0000
  Pt  Pt3467    1.0  0.85000  0.60000  0.65000  1.0000
  Pt  Pt3468    1.0  0.85000  0.65000  0.60000  1.0000
  Pt  Pt3469    1.0  0.80000  0.60000  0.70000  1.0000
  Pt  Pt3470    1.0  0.80000  0.65000  0.75000  1.0000
  Pt  Pt3471    1.0  0.85000  0.60000  0.75000  1.0000
  Pt  Pt3472    1.0  0.85000  0.65000  0.70000  1.0000
  Pt  Pt3473    1.0  0.80000  0.60000  0.80000  1.0000
  Pt  Pt3474    1.0  0.80000  0.65000  0.85000  1.0000
  Pt  Pt3475    1.0  0.85000  0.60000  0.85000  1.0000
  Pt  Pt3476    1.0  0.85000  0.65000  0.80000  1.0000
  Pt  Pt3477    1.0  0.80000  0.60000  0.90000  1.0000
  Pt  Pt3478    1.0  0.80000  0.65000  0.95000  1.0000
  Pt  Pt3479    1.0  0.85000  0.60000  0.95000  1.0000
  Pt  Pt3480    1.0  0.85000  0.65000  0.90000  1.0000
  Pt  Pt3481    1.0  0.80000  0.70000  0.00000  1.0000
  Pt  Pt3482    1.0  0.80000  0.75000  0.05000  1.0000
  Pt  Pt3483    1.0  0.85000  0.70000  0.05000  1.0000
  Pt  Pt3484    1.0  0.85000  0.75000  0.00000  1.0000
  Pt  Pt3485    1.0  0.80000  0.70000  0.10000  1.0000
  Pt  Pt3486    1.0  0.80000  0.75000  0.15000  1.0000
  Pt  Pt3487    1.0  0.85000  0.70000  0.15000  1.0000
  Pt  Pt3488    1.0  0.85000  0.75000  0.10000  1.0000
  Pt  Pt3489    1.0  0.80000  0.70000  0.20000  1.0000
  Pt  Pt3490    1.0  0.80000  0.75000  0.25000  1.0000
  Pt  Pt3491    1.0  0.85000  0.70000  0.25000  1.0000
  Pt  Pt3492    1.0  0.85000  0.75000  0.20000  1.0000
  Pt  Pt3493    1.0  0.80000  0.70000  0.30000  1.0000
  Pt  Pt3494    1.0  0.80000  0.75000  0.35000  1.0000
  Pt  Pt3495    1.0  0.85000  0.70000  0.35000  1.0000
  Pt  Pt3496    1.0  0.85000  0.75000  0.30000  1.0000
  Pt  Pt3497    1.0  0.80000  0.70000  0.40000  1.0000
  Pt  Pt3498    1.0  0.80000  0.75000  0.45000  1.0000
  Pt  Pt3499    1.0  0.85000  0.70000  0.45000  1.0000
  Pt  Pt3500    1.0  0.85000  0.75000  0.40000  1.0000
  Pt  Pt3501    1.0  0.80000  0.70000  0.50000  1.0000
  Pt  Pt3502    1.0  0.80000  0.75000  0.55000  1.0000
  Pt  Pt3503    1.0  0.85000  0.70000  0.55000  1.0000
  Pt  Pt3504    1.0  0.85000  0.75000  0.50000  1.0000
  Pt  Pt3505    1.0  0.80000  0.70000  0.60000  1.0000
  Pt  Pt3506    1.0  0.80000  0.75000  0.65000  1.0000
  Pt  Pt3507    1.0  0.85000  0.70000  0.65000  1.0000
  Pt  Pt3508    1.0  0.85000  0.75000  0.60000  1.0000
  Pt  Pt3509    1.0  0.80000  0.70000  0.70000  1.0000
  Pt  Pt3510    1.0  0.80000  0.75000  0.75000  1.0000
  Pt  Pt3511    1.0  0.85000  0.70000  0.75000  1.0000
  Pt  Pt3512    1.0  0.85000  0.75000  0.70000  1.0000
  Pt  Pt3513    1.0  0.80000  0.70000  0.80000  1.0000
  Pt  Pt3514    1.0  0.80000  0.75000  0.85000  1.0000
  Pt  Pt3515    1.0  0.85000  0.70000  0.85000  1.0000
  Pt  Pt3516    1.0  0.85000  0.75000  0.80000  1.0000
  Pt  Pt3517    1.0  0.80000  0.70000  0.90000  1.0000
  Pt  Pt3518    1.0  0.80000  0.75000  0.95000  1.0000
  Pt  Pt3519    1.0  0.85000  0.70000  0.95000  1.0000
  Pt  Pt3520    1.0  0.85000  0.75000  0.90000  1.0000
  Pt  Pt3521    1.0  0.80000  0.80000  0.00000  1.0000
  Pt  Pt3522    1.0  0.80000  0.85000  0.05000  1.0000
  Pt  Pt3523    1.0  0.85000  0.80000  0.05000  1.0000
  Pt  Pt3524    1.0  0.85000  0.85000  0.00000  1.0000
  Pt  Pt3525    1.0  0.80000  0.80000  0.10000  1.0000
  Pt  Pt3526    1.0  0.80000  0.85000  0.15000  1.0000
  Pt  Pt3527    1.0  0.85000  0.80000  0.15000  1.0000
  Pt  Pt3528    1.0  0.85000  0.85000  0.10000  1.0000
  Pt  Pt3529    1.0  0.80000  0.80000  0.20000  1.0000
  Pt  Pt3530    1.0  0.80000  0.85000  0.25000  1.0000
  Pt  Pt3531    1.0  0.85000  0.80000  0.25000  1.0000
  Pt  Pt3532    1.0  0.85000  0.85000  0.20000  1.0000
  Pt  Pt3533    1.0  0.80000  0.80000  0.30000  1.0000
  Pt  Pt3534    1.0  0.80000  0.85000  0.35000  1.0000
  Pt  Pt3535    1.0  0.85000  0.80000  0.35000  1.0000
  Pt  Pt3536    1.0  0.85000  0.85000  0.30000  1.0000
  Pt  Pt3537    1.0  0.80000  0.80000  0.40000  1.0000
  Pt  Pt3538    1.0  0.80000  0.85000  0.45000  1.0000
  Pt  Pt3539    1.0  0.85000  0.80000  0.45000  1.0000
  Pt  Pt3540    1.0  0.85000  0.85000  0.40000  1.0000
  Pt  Pt3541    1.0  0.80000  0.80000  0.50000  1.0000
  Pt  Pt3542    1.0  0.80000  0.85000  0.55000  1.0000
  Pt  Pt3543    1.0  0.85000  0.80000  0.55000  1.0000
  Pt  Pt3544    1.0  0.85000  0.85000  0.50000  1.0000
  Pt  Pt3545    1.0  0.80000  0.80000  0.60000  1.0000
  Pt  Pt3546    1.0  0.80000  0.85000  0.65000  1.0000
  Pt  Pt3547    1.0  0.85000  0.80000  0.65000  1.0000
  Pt  Pt3548    1.0  0.85000  0.85000  0.60000  1.0000
  Pt  Pt3549    1.0  0.80000  0.80000  0.70000  1.0000
  Pt  Pt3550    1.0  0.80000  0.85000  0.75000  1.0000
  Pt  Pt3551    1.0  0.85000  0.80000  0.75000  1.0000
  Pt  Pt3552    1.0  0.85000  0.85000  0.70000  1.0000
  Pt  Pt3553    1.0  0.80000  0.80000  0.80000  1.0000
  Pt  Pt3554    1.0  0.80000  0.85000  0.85000  1.0000
  Pt  Pt3555    1.0  0.85000  0.80000  0.85000  1.0000
  Pt  Pt3556    1.0  0.85000  0.85000  0.80000  1.0000
  Pt  Pt3557    1.0  0.80000  0.80000  0.90000  1.0000
  Pt  Pt3558    1.0  0.80000  0.85000  0.95000  1.0000
  Pt  Pt3559    1.0  0.85000  0.80000  0.95000  1.0000
  Pt  Pt3560    1.0  0.85000  0.85000  0.90000  1.0000
  Pt  Pt3561    1.0  0.80000  0.90000  0.00000  1.0000
  Pt  Pt3562    1.0  0.80000  0.95000  0.05000  1.0000
  Pt  Pt3563    1.0  0.85000  0.90000  0.05000  1.0000
  Pt  Pt3564    1.0  0.85000  0.95000  0.00000  1.0000
  Pt  Pt3565    1.0  0.80000  0.90000  0.10000  1.0000
  Pt  Pt3566    1.0  0.80000  0.95000  0.15000  1.0000
  Pt  Pt3567    1.0  0.85000  0.90000  0.15000  1.0000
  Pt  Pt3568    1.0  0.85000  0.95000  0.10000  1.0000
  Pt  Pt3569    1.0  0.80000  0.90000  0.20000  1.0000
  Pt  Pt3570    1.0  0.80000  0.95000  0.25000  1.0000
  Pt  Pt3571    1.0  0.85000  0.90000  0.25000  1.0000
  Pt  Pt3572    1.0  0.85000  0.95000  0.20000  1.0000
  Pt  Pt3573    1.0  0.80000  0.90000  0.30000  1.0000
  Pt  Pt3574    1.0  0.80000  0.95000  0.35000  1.0000
  Pt  Pt3575    1.0  0.85000  0.90000  0.35000  1.0000
  Pt  Pt3576    1.0  0.85000  0.95000  0.30000  1.0000
  Pt  Pt3577    1.0  0.80000  0.90000  0.40000  1.0000
  Pt  Pt3578    1.0  0.80000  0.95000  0.45000  1.0000
  Pt  Pt3579    1.0  0.85000  0.90000  0.45000  1.0000
  Pt  Pt3580    1.0  0.85000  0.95000  0.40000  1.0000
  Pt  Pt3581    1.0  0.80000  0.90000  0.50000  1.0000
  Pt  Pt3582    1.0  0.80000  0.95000  0.55000  1.0000
  Pt  Pt3583    1.0  0.85000  0.90000  0.55000  1.0000
  Pt  Pt3584    1.0  0.85000  0.95000  0.50000  1.0000
  Pt  Pt3585    1.0  0.80000  0.90000  0.60000  1.0000
  Pt  Pt3586    1.0  0.80000  0.95000  0.65000  1.0000
  Pt  Pt3587    1.0  0.85000  0.90000  0.65000  1.0000
  Pt  Pt3588    1.0  0.85000  0.95000  0.60000  1.0000
  Pt  Pt3589    1.0  0.80000  0.90000  0.70000  1.0000
  Pt  Pt3590    1.0  0.80000  0.95000  0.75000  1.0000
  Pt  Pt3591    1.0  0.85000  0.90000  0.75000  1.0000
  Pt  Pt3592    1.0  0.85000  0.95000  0.70000  1.0000
  Pt  Pt3593    1.0  0.80000  0.90000  0.80000  1.0000
  Pt  Pt3594    1.0  0.80000  0.95000  0.85000  1.0000
  Pt  Pt3595    1.0  0.85000  0.90000  0.85000  1.0000
  Pt  Pt3596    1.0  0.85000  0.95000  0.80000  1.0000
  Pt  Pt3597    1.0  0.80000  0.90000  0.90000  1.0000
  Pt  Pt3598    1.0  0.80000  0.95000  0.95000  1.0000
  Pt  Pt3599    1.0  0.85000  0.90000  0.95000  1.0000
  Pt  Pt3600    1.0  0.85000  0.95000  0.90000  1.0000
  Pt  Pt3601    1.0  0.90000  0.00000  0.00000  1.0000
  Pt  Pt3602    1.0  0.90000  0.05000  0.05000  1.0000
  Pt  Pt3603    1.0  0.95000  0.00000  0.05000  1.0000
  Pt  Pt3604    1.0  0.95000  0.05000  0.00000  1.0000
  Pt  Pt3605    1.0  0.90000  0.00000  0.10000  1.0000
  Pt  Pt3606    1.0  0.90000  0.05000  0.15000  1.0000
  Pt  Pt3607    1.0  0.95000  0.00000  0.15000  1.0000
  Pt  Pt3608    1.0  0.95000  0.05000  0.10000  1.0000
  Pt  Pt3609    1.0  0.90000  0.00000  0.20000  1.0000
  Pt  Pt3610    1.0  0.90000  0.05000  0.25000  1.0000
  Pt  Pt3611    1.0  0.95000  0.00000  0.25000  1.0000
  Pt  Pt3612    1.0  0.95000  0.05000  0.20000  1.0000
  Pt  Pt3613    1.0  0.90000  0.00000  0.30000  1.0000
  Pt  Pt3614    1.0  0.90000  0.05000  0.35000  1.0000
  Pt  Pt3615    1.0  0.95000  0.00000  0.35000  1.0000
  Pt  Pt3616    1.0  0.95000  0.05000  0.30000  1.0000
  Pt  Pt3617    1.0  0.90000  0.00000  0.40000  1.0000
  Pt  Pt3618    1.0  0.90000  0.05000  0.45000  1.0000
  Pt  Pt3619    1.0  0.95000  0.00000  0.45000  1.0000
  Pt  Pt3620    1.0  0.95000  0.05000  0.40000  1.0000
  Pt  Pt3621    1.0  0.90000  0.00000  0.50000  1.0000
  Pt  Pt3622    1.0  0.90000  0.05000  0.55000  1.0000
  Pt  Pt3623    1.0  0.95000  0.00000  0.55000  1.0000
  Pt  Pt3624    1.0  0.95000  0.05000  0.50000  1.0000
  Pt  Pt3625    1.0  0.90000  0.00000  0.60000  1.0000
  Pt  Pt3626    1.0  0.90000  0.05000  0.65000  1.0000
  Pt  Pt3627    1.0  0.95000  0.00000  0.65000  1.0000
  Pt  Pt3628    1.0  0.95000  0.05000  0.60000  1.0000
  Pt  Pt3629    1.0  0.90000  0.00000  0.70000  1.0000
  Pt  Pt3630    1.0  0.90000  0.05000  0.75000  1.0000
  Pt  Pt3631    1.0  0.95000  0.00000  0.75000  1.0000
  Pt  Pt3632    1.0  0.95000  0.05000  0.70000  1.0000
  Pt  Pt3633    1.0  0.90000  0.00000  0.80000  1.0000
  Pt  Pt3634    1.0  0.90000  0.05000  0.85000  1.0000
  Pt  Pt3635    1.0  0.95000  0.00000  0.85000  1.0000
  Pt  Pt3636    1.0  0.95000  0.05000  0.80000  1.0000
  Pt  Pt3637    1.0  0.90000  0.00000  0.90000  1.0000
  Pt  Pt3638    1.0  0.90000  0.05000  0.95000  1.0000
  Pt  Pt3639    1.0  0.95000  0.00000  0.95000  1.0000
  Pt  Pt3640    1.0  0.95000  0.05000  0.90000  1.0000
  Pt  Pt3641    1.0  0.90000  0.10000  0.00000  1.0000
  Pt  Pt3642    1.0  0.90000  0.15000  0.05000  1.0000
  Pt  Pt3643    1.0  0.95000  0.10000  0.05000  1.0000
  Pt  Pt3644    1.0  0.95000  0.15000  0.00000  1.0000
  Pt  Pt3645    1.0  0.90000  0.10000  0.10000  1.0000
  Pt  Pt3646    1.0  0.90000  0.15000  0.15000  1.0000
  Pt  Pt3647    1.0  0.95000  0.10000  0.15000  1.0000
  Pt  Pt3648    1.0  0.95000  0.15000  0.10000  1.0000
  Pt  Pt3649    1.0  0.90000  0.10000  0.20000  1.0000
  Pt  Pt3650    1.0  0.90000  0.15000  0.25000  1.0000
  Pt  Pt3651    1.0  0.95000  0.10000  0.25000  1.0000
  Pt  Pt3652    1.0  0.95000  0.15000  0.20000  1.0000
  Pt  Pt3653    1.0  0.90000  0.10000  0.30000  1.0000
  Pt  Pt3654    1.0  0.90000  0.15000  0.35000  1.0000
  Pt  Pt3655    1.0  0.95000  0.10000  0.35000  1.0000
  Pt  Pt3656    1.0  0.95000  0.15000  0.30000  1.0000
  Pt  Pt3657    1.0  0.90000  0.10000  0.40000  1.0000
  Pt  Pt3658    1.0  0.90000  0.15000  0.45000  1.0000
  Pt  Pt3659    1.0  0.95000  0.10000  0.45000  1.0000
  Pt  Pt3660    1.0  0.95000  0.15000  0.40000  1.0000
  Pt  Pt3661    1.0  0.90000  0.10000  0.50000  1.0000
  Pt  Pt3662    1.0  0.90000  0.15000  0.55000  1.0000
  Pt  Pt3663    1.0  0.95000  0.10000  0.55000  1.0000
  Pt  Pt3664    1.0  0.95000  0.15000  0.50000  1.0000
  Pt  Pt3665    1.0  0.90000  0.10000  0.60000  1.0000
  Pt  Pt3666    1.0  0.90000  0.15000  0.65000  1.0000
  Pt  Pt3667    1.0  0.95000  0.10000  0.65000  1.0000
  Pt  Pt3668    1.0  0.95000  0.15000  0.60000  1.0000
  Pt  Pt3669    1.0  0.90000  0.10000  0.70000  1.0000
  Pt  Pt3670    1.0  0.90000  0.15000  0.75000  1.0000
  Pt  Pt3671    1.0  0.95000  0.10000  0.75000  1.0000
  Pt  Pt3672    1.0  0.95000  0.15000  0.70000  1.0000
  Pt  Pt3673    1.0  0.90000  0.10000  0.80000  1.0000
  Pt  Pt3674    1.0  0.90000  0.15000  0.85000  1.0000
  Pt  Pt3675    1.0  0.95000  0.10000  0.85000  1.0000
  Pt  Pt3676    1.0  0.95000  0.15000  0.80000  1.0000
  Pt  Pt3677    1.0  0.90000  0.10000  0.90000  1.0000
  Pt  Pt3678    1.0  0.90000  0.15000  0.95000  1.0000
  Pt  Pt3679    1.0  0.95000  0.10000  0.95000  1.0000
  Pt  Pt3680    1.0  0.95000  0.15000  0.90000  1.0000
  Pt  Pt3681    1.0  0.90000  0.20000  0.00000  1.0000
  Pt  Pt3682    1.0  0.90000  0.25000  0.05000  1.0000
  Pt  Pt3683    1.0  0.95000  0.20000  0.05000  1.0000
  Pt  Pt3684    1.0  0.95000  0.25000  0.00000  1.0000
  Pt  Pt3685    1.0  0.90000  0.20000  0.10000  1.0000
  Pt  Pt3686    1.0  0.90000  0.25000  0.15000  1.0000
  Pt  Pt3687    1.0  0.95000  0.20000  0.15000  1.0000
  Pt  Pt3688    1.0  0.95000  0.25000  0.10000  1.0000
  Pt  Pt3689    1.0  0.90000  0.20000  0.20000  1.0000
  Pt  Pt3690    1.0  0.90000  0.25000  0.25000  1.0000
  Pt  Pt3691    1.0  0.95000  0.20000  0.25000  1.0000
  Pt  Pt3692    1.0  0.95000  0.25000  0.20000  1.0000
  Pt  Pt3693    1.0  0.90000  0.20000  0.30000  1.0000
  Pt  Pt3694    1.0  0.90000  0.25000  0.35000  1.0000
  Pt  Pt3695    1.0  0.95000  0.20000  0.35000  1.0000
  Pt  Pt3696    1.0  0.95000  0.25000  0.30000  1.0000
  Pt  Pt3697    1.0  0.90000  0.20000  0.40000  1.0000
  Pt  Pt3698    1.0  0.90000  0.25000  0.45000  1.0000
  Pt  Pt3699    1.0  0.95000  0.20000  0.45000  1.0000
  Pt  Pt3700    1.0  0.95000  0.25000  0.40000  1.0000
  Pt  Pt3701    1.0  0.90000  0.20000  0.50000  1.0000
  Pt  Pt3702    1.0  0.90000  0.25000  0.55000  1.0000
  Pt  Pt3703    1.0  0.95000  0.20000  0.55000  1.0000
  Pt  Pt3704    1.0  0.95000  0.25000  0.50000  1.0000
  Pt  Pt3705    1.0  0.90000  0.20000  0.60000  1.0000
  Pt  Pt3706    1.0  0.90000  0.25000  0.65000  1.0000
  Pt  Pt3707    1.0  0.95000  0.20000  0.65000  1.0000
  Pt  Pt3708    1.0  0.95000  0.25000  0.60000  1.0000
  Pt  Pt3709    1.0  0.90000  0.20000  0.70000  1.0000
  Pt  Pt3710    1.0  0.90000  0.25000  0.75000  1.0000
  Pt  Pt3711    1.0  0.95000  0.20000  0.75000  1.0000
  Pt  Pt3712    1.0  0.95000  0.25000  0.70000  1.0000
  Pt  Pt3713    1.0  0.90000  0.20000  0.80000  1.0000
  Pt  Pt3714    1.0  0.90000  0.25000  0.85000  1.0000
  Pt  Pt3715    1.0  0.95000  0.20000  0.85000  1.0000
  Pt  Pt3716    1.0  0.95000  0.25000  0.80000  1.0000
  Pt  Pt3717    1.0  0.90000  0.20000  0.90000  1.0000
  Pt  Pt3718    1.0  0.90000  0.25000  0.95000  1.0000
  Pt  Pt3719    1.0  0.95000  0.20000  0.95000  1.0000
  Pt  Pt3720    1.0  0.95000  0.25000  0.90000  1.0000
  Pt  Pt3721    1.0  0.90000  0.30000  0.00000  1.0000
  Pt  Pt3722    1.0  0.90000  0.35000  0.05000  1.0000
  Pt  Pt3723    1.0  0.95000  0.30000  0.05000  1.0000
  Pt  Pt3724    1.0  0.95000  0.35000  0.00000  1.0000
  Pt  Pt3725    1.0  0.90000  0.30000  0.10000  1.0000
  Pt  Pt3726    1.0  0.90000  0.35000  0.15000  1.0000
  Pt  Pt3727    1.0  0.95000  0.30000  0.15000  1.0000
  Pt  Pt3728    1.0  0.95000  0.35000  0.10000  1.0000
  Pt  Pt3729    1.0  0.90000  0.30000  0.20000  1.0000
  Pt  Pt3730    1.0  0.90000  0.35000  0.25000  1.0000
  Pt  Pt3731    1.0  0.95000  0.30000  0.25000  1.0000
  Pt  Pt3732    1.0  0.95000  0.35000  0.20000  1.0000
  Pt  Pt3733    1.0  0.90000  0.30000  0.30000  1.0000
  Pt  Pt3734    1.0  0.90000  0.35000  0.35000  1.0000
  Pt  Pt3735    1.0  0.95000  0.30000  0.35000  1.0000
  Pt  Pt3736    1.0  0.95000  0.35000  0.30000  1.0000
  Pt  Pt3737    1.0  0.90000  0.30000  0.40000  1.0000
  Pt  Pt3738    1.0  0.90000  0.35000  0.45000  1.0000
  Pt  Pt3739    1.0  0.95000  0.30000  0.45000  1.0000
  Pt  Pt3740    1.0  0.95000  0.35000  0.40000  1.0000
  Pt  Pt3741    1.0  0.90000  0.30000  0.50000  1.0000
  Pt  Pt3742    1.0  0.90000  0.35000  0.55000  1.0000
  Pt  Pt3743    1.0  0.95000  0.30000  0.55000  1.0000
  Pt  Pt3744    1.0  0.95000  0.35000  0.50000  1.0000
  Pt  Pt3745    1.0  0.90000  0.30000  0.60000  1.0000
  Pt  Pt3746    1.0  0.90000  0.35000  0.65000  1.0000
  Pt  Pt3747    1.0  0.95000  0.30000  0.65000  1.0000
  Pt  Pt3748    1.0  0.95000  0.35000  0.60000  1.0000
  Pt  Pt3749    1.0  0.90000  0.30000  0.70000  1.0000
  Pt  Pt3750    1.0  0.90000  0.35000  0.75000  1.0000
  Pt  Pt3751    1.0  0.95000  0.30000  0.75000  1.0000
  Pt  Pt3752    1.0  0.95000  0.35000  0.70000  1.0000
  Pt  Pt3753    1.0  0.90000  0.30000  0.80000  1.0000
  Pt  Pt3754    1.0  0.90000  0.35000  0.85000  1.0000
  Pt  Pt3755    1.0  0.95000  0.30000  0.85000  1.0000
  Pt  Pt3756    1.0  0.95000  0.35000  0.80000  1.0000
  Pt  Pt3757    1.0  0.90000  0.30000  0.90000  1.0000
  Pt  Pt3758    1.0  0.90000  0.35000  0.95000  1.0000
  Pt  Pt3759    1.0  0.95000  0.30000  0.95000  1.0000
  Pt  Pt3760    1.0  0.95000  0.35000  0.90000  1.0000
  Pt  Pt3761    1.0  0.90000  0.40000  0.00000  1.0000
  Pt  Pt3762    1.0  0.90000  0.45000  0.05000  1.0000
  Pt  Pt3763    1.0  0.95000  0.40000  0.05000  1.0000
  Pt  Pt3764    1.0  0.95000  0.45000  0.00000  1.0000
  Pt  Pt3765    1.0  0.90000  0.40000  0.10000  1.0000
  Pt  Pt3766    1.0  0.90000  0.45000  0.15000  1.0000
  Pt  Pt3767    1.0  0.95000  0.40000  0.15000  1.0000
  Pt  Pt3768    1.0  0.95000  0.45000  0.10000  1.0000
  Pt  Pt3769    1.0  0.90000  0.40000  0.20000  1.0000
  Pt  Pt3770    1.0  0.90000  0.45000  0.25000  1.0000
  Pt  Pt3771    1.0  0.95000  0.40000  0.25000  1.0000
  Pt  Pt3772    1.0  0.95000  0.45000  0.20000  1.0000
  Pt  Pt3773    1.0  0.90000  0.40000  0.30000  1.0000
  Pt  Pt3774    1.0  0.90000  0.45000  0.35000  1.0000
  Pt  Pt3775    1.0  0.95000  0.40000  0.35000  1.0000
  Pt  Pt3776    1.0  0.95000  0.45000  0.30000  1.0000
  Pt  Pt3777    1.0  0.90000  0.40000  0.40000  1.0000
  Pt  Pt3778    1.0  0.90000  0.45000  0.45000  1.0000
  Pt  Pt3779    1.0  0.95000  0.40000  0.45000  1.0000
  Pt  Pt3780    1.0  0.95000  0.45000  0.40000  1.0000
  Pt  Pt3781    1.0  0.90000  0.40000  0.50000  1.0000
  Pt  Pt3782    1.0  0.90000  0.45000  0.55000  1.0000
  Pt  Pt3783    1.0  0.95000  0.40000  0.55000  1.0000
  Pt  Pt3784    1.0  0.95000  0.45000  0.50000  1.0000
  Pt  Pt3785    1.0  0.90000  0.40000  0.60000  1.0000
  Pt  Pt3786    1.0  0.90000  0.45000  0.65000  1.0000
  Pt  Pt3787    1.0  0.95000  0.40000  0.65000  1.0000
  Pt  Pt3788    1.0  0.95000  0.45000  0.60000  1.0000
  Pt  Pt3789    1.0  0.90000  0.40000  0.70000  1.0000
  Pt  Pt3790    1.0  0.90000  0.45000  0.75000  1.0000
  Pt  Pt3791    1.0  0.95000  0.40000  0.75000  1.0000
  Pt  Pt3792    1.0  0.95000  0.45000  0.70000  1.0000
  Pt  Pt3793    1.0  0.90000  0.40000  0.80000  1.0000
  Pt  Pt3794    1.0  0.90000  0.45000  0.85000  1.0000
  Pt  Pt3795    1.0  0.95000  0.40000  0.85000  1.0000
  Pt  Pt3796    1.0  0.95000  0.45000  0.80000  1.0000
  Pt  Pt3797    1.0  0.90000  0.40000  0.90000  1.0000
  Pt  Pt3798    1.0  0.90000  0.45000  0.95000  1.0000
  Pt  Pt3799    1.0  0.95000  0.40000  0.95000  1.0000
  Pt  Pt3800    1.0  0.95000  0.45000  0.90000  1.0000
  Pt  Pt3801    1.0  0.90000  0.50000  0.00000  1.0000
  Pt  Pt3802    1.0  0.90000  0.55000  0.05000  1.0000
  Pt  Pt3803    1.0  0.95000  0.50000  0.05000  1.0000
  Pt  Pt3804    1.0  0.95000  0.55000  0.00000  1.0000
  Pt  Pt3805    1.0  0.90000  0.50000  0.10000  1.0000
  Pt  Pt3806    1.0  0.90000  0.55000  0.15000  1.0000
  Pt  Pt3807    1.0  0.95000  0.50000  0.15000  1.0000
  Pt  Pt3808    1.0  0.95000  0.55000  0.10000  1.0000
  Pt  Pt3809    1.0  0.90000  0.50000  0.20000  1.0000
  Pt  Pt3810    1.0  0.90000  0.55000  0.25000  1.0000
  Pt  Pt3811    1.0  0.95000  0.50000  0.25000  1.0000
  Pt  Pt3812    1.0  0.95000  0.55000  0.20000  1.0000
  Pt  Pt3813    1.0  0.90000  0.50000  0.30000  1.0000
  Pt  Pt3814    1.0  0.90000  0.55000  0.35000  1.0000
  Pt  Pt3815    1.0  0.95000  0.50000  0.35000  1.0000
  Pt  Pt3816    1.0  0.95000  0.55000  0.30000  1.0000
  Pt  Pt3817    1.0  0.90000  0.50000  0.40000  1.0000
  Pt  Pt3818    1.0  0.90000  0.55000  0.45000  1.0000
  Pt  Pt3819    1.0  0.95000  0.50000  0.45000  1.0000
  Pt  Pt3820    1.0  0.95000  0.55000  0.40000  1.0000
  Pt  Pt3821    1.0  0.90000  0.50000  0.50000  1.0000
  Pt  Pt3822    1.0  0.90000  0.55000  0.55000  1.0000
  Pt  Pt3823    1.0  0.95000  0.50000  0.55000  1.0000
  Pt  Pt3824    1.0  0.95000  0.55000  0.50000  1.0000
  Pt  Pt3825    1.0  0.90000  0.50000  0.60000  1.0000
  Pt  Pt3826    1.0  0.90000  0.55000  0.65000  1.0000
  Pt  Pt3827    1.0  0.95000  0.50000  0.65000  1.0000
  Pt  Pt3828    1.0  0.95000  0.55000  0.60000  1.0000
  Pt  Pt3829    1.0  0.90000  0.50000  0.70000  1.0000
  Pt  Pt3830    1.0  0.90000  0.55000  0.75000  1.0000
  Pt  Pt3831    1.0  0.95000  0.50000  0.75000  1.0000
  Pt  Pt3832    1.0  0.95000  0.55000  0.70000  1.0000
  Pt  Pt3833    1.0  0.90000  0.50000  0.80000  1.0000
  Pt  Pt3834    1.0  0.90000  0.55000  0.85000  1.0000
  Pt  Pt3835    1.0  0.95000  0.50000  0.85000  1.0000
  Pt  Pt3836    1.0  0.95000  0.55000  0.80000  1.0000
  Pt  Pt3837    1.0  0.90000  0.50000  0.90000  1.0000
  Pt  Pt3838    1.0  0.90000  0.55000  0.95000  1.0000
  Pt  Pt3839    1.0  0.95000  0.50000  0.95000  1.0000
  Pt  Pt3840    1.0  0.95000  0.55000  0.90000  1.0000
  Pt  Pt3841    1.0  0.90000  0.60000  0.00000  1.0000
  Pt  Pt3842    1.0  0.90000  0.65000  0.05000  1.0000
  Pt  Pt3843    1.0  0.95000  0.60000  0.05000  1.0000
  Pt  Pt3844    1.0  0.95000  0.65000  0.00000  1.0000
  Pt  Pt3845    1.0  0.90000  0.60000  0.10000  1.0000
  Pt  Pt3846    1.0  0.90000  0.65000  0.15000  1.0000
  Pt  Pt3847    1.0  0.95000  0.60000  0.15000  1.0000
  Pt  Pt3848    1.0  0.95000  0.65000  0.10000  1.0000
  Pt  Pt3849    1.0  0.90000  0.60000  0.20000  1.0000
  Pt  Pt3850    1.0  0.90000  0.65000  0.25000  1.0000
  Pt  Pt3851    1.0  0.95000  0.60000  0.25000  1.0000
  Pt  Pt3852    1.0  0.95000  0.65000  0.20000  1.0000
  Pt  Pt3853    1.0  0.90000  0.60000  0.30000  1.0000
  Pt  Pt3854    1.0  0.90000  0.65000  0.35000  1.0000
  Pt  Pt3855    1.0  0.95000  0.60000  0.35000  1.0000
  Pt  Pt3856    1.0  0.95000  0.65000  0.30000  1.0000
  Pt  Pt3857    1.0  0.90000  0.60000  0.40000  1.0000
  Pt  Pt3858    1.0  0.90000  0.65000  0.45000  1.0000
  Pt  Pt3859    1.0  0.95000  0.60000  0.45000  1.0000
  Pt  Pt3860    1.0  0.95000  0.65000  0.40000  1.0000
  Pt  Pt3861    1.0  0.90000  0.60000  0.50000  1.0000
  Pt  Pt3862    1.0  0.90000  0.65000  0.55000  1.0000
  Pt  Pt3863    1.0  0.95000  0.60000  0.55000  1.0000
  Pt  Pt3864    1.0  0.95000  0.65000  0.50000  1.0000
  Pt  Pt3865    1.0  0.90000  0.60000  0.60000  1.0000
  Pt  Pt3866    1.0  0.90000  0.65000  0.65000  1.0000
  Pt  Pt3867    1.0  0.95000  0.60000  0.65000  1.0000
  Pt  Pt3868    1.0  0.95000  0.65000  0.60000  1.0000
  Pt  Pt3869    1.0  0.90000  0.60000  0.70000  1.0000
  Pt  Pt3870    1.0  0.90000  0.65000  0.75000  1.0000
  Pt  Pt3871    1.0  0.95000  0.60000  0.75000  1.0000
  Pt  Pt3872    1.0  0.95000  0.65000  0.70000  1.0000
  Pt  Pt3873    1.0  0.90000  0.60000  0.80000  1.0000
  Pt  Pt3874    1.0  0.90000  0.65000  0.85000  1.0000
  Pt  Pt3875    1.0  0.95000  0.60000  0.85000  1.0000
  Pt  Pt3876    1.0  0.95000  0.65000  0.80000  1.0000
  Pt  Pt3877    1.0  0.90000  0.60000  0.90000  1.0000
  Pt  Pt3878    1.0  0.90000  0.65000  0.95000  1.0000
  Pt  Pt3879    1.0  0.95000  0.60000  0.95000  1.0000
  Pt  Pt3880    1.0  0.95000  0.65000  0.90000  1.0000
  Pt  Pt3881    1.0  0.90000  0.70000  0.00000  1.0000
  Pt  Pt3882    1.0  0.90000  0.75000  0.05000  1.0000
  Pt  Pt3883    1.0  0.95000  0.70000  0.05000  1.0000
  Pt  Pt3884    1.0  0.95000  0.75000  0.00000  1.0000
  Pt  Pt3885    1.0  0.90000  0.70000  0.10000  1.0000
  Pt  Pt3886    1.0  0.90000  0.75000  0.15000  1.0000
  Pt  Pt3887    1.0  0.95000  0.70000  0.15000  1.0000
  Pt  Pt3888    1.0  0.95000  0.75000  0.10000  1.0000
  Pt  Pt3889    1.0  0.90000  0.70000  0.20000  1.0000
  Pt  Pt3890    1.0  0.90000  0.75000  0.25000  1.0000
  Pt  Pt3891    1.0  0.95000  0.70000  0.25000  1.0000
  Pt  Pt3892    1.0  0.95000  0.75000  0.20000  1.0000
  Pt  Pt3893    1.0  0.90000  0.70000  0.30000  1.0000
  Pt  Pt3894    1.0  0.90000  0.75000  0.35000  1.0000
  Pt  Pt3895    1.0  0.95000  0.70000  0.35000  1.0000
  Pt  Pt3896    1.0  0.95000  0.75000  0.30000  1.0000
  Pt  Pt3897    1.0  0.90000  0.70000  0.40000  1.0000
  Pt  Pt3898    1.0  0.90000  0.75000  0.45000  1.0000
  Pt  Pt3899    1.0  0.95000  0.70000  0.45000  1.0000
  Pt  Pt3900    1.0  0.95000  0.75000  0.40000  1.0000
  Pt  Pt3901    1.0  0.90000  0.70000  0.50000  1.0000
  Pt  Pt3902    1.0  0.90000  0.75000  0.55000  1.0000
  Pt  Pt3903    1.0  0.95000  0.70000  0.55000  1.0000
  Pt  Pt3904    1.0  0.95000  0.75000  0.50000  1.0000
  Pt  Pt3905    1.0  0.90000  0.70000  0.60000  1.0000
  Pt  Pt3906    1.0  0.90000  0.75000  0.65000  1.0000
  Pt  Pt3907    1.0  0.95000  0.70000  0.65000  1.0000
  Pt  Pt3908    1.0  0.95000  0.75000  0.60000  1.0000
  Pt  Pt3909    1.0  0.90000  0.70000  0.70000  1.0000
  Pt  Pt3910    1.0  0.90000  0.75000  0.75000  1.0000
  Pt  Pt3911    1.0  0.95000  0.70000  0.75000  1.0000
  Pt  Pt3912    1.0  0.95000  0.75000  0.70000  1.0000
  Pt  Pt3913    1.0  0.90000  0.70000  0.80000  1.0000
  Pt  Pt3914    1.0  0.90000  0.75000  0.85000  1.0000
  Pt  Pt3915    1.0  0.95000  0.70000  0.85000  1.0000
  Pt  Pt3916    1.0  0.95000  0.75000  0.80000  1.0000
  Pt  Pt3917    1.0  0.90000  0.70000  0.90000  1.0000
  Pt  Pt3918    1.0  0.90000  0.75000  0.95000  1.0000
  Pt  Pt3919    1.0  0.95000  0.70000  0.95000  1.0000
  Pt  Pt3920    1.0  0.95000  0.75000  0.90000  1.0000
  Pt  Pt3921    1.0  0.90000  0.80000  0.00000  1.0000
  Pt  Pt3922    1.0  0.90000  0.85000  0.05000  1.0000
  Pt  Pt3923    1.0  0.95000  0.80000  0.05000  1.0000
  Pt  Pt3924    1.0  0.95000  0.85000  0.00000  1.0000
  Pt  Pt3925    1.0  0.90000  0.80000  0.10000  1.0000
  Pt  Pt3926    1.0  0.90000  0.85000  0.15000  1.0000
  Pt  Pt3927    1.0  0.95000  0.80000  0.15000  1.0000
  Pt  Pt3928    1.0  0.95000  0.85000  0.10000  1.0000
  Pt  Pt3929    1.0  0.90000  0.80000  0.20000  1.0000
  Pt  Pt3930    1.0  0.90000  0.85000  0.25000  1.0000
  Pt  Pt3931    1.0  0.95000  0.80000  0.25000  1.0000
  Pt  Pt3932    1.0  0.95000  0.85000  0.20000  1.0000
  Pt  Pt3933    1.0  0.90000  0.80000  0.30000  1.0000
  Pt  Pt3934    1.0  0.90000  0.85000  0.35000  1.0000
  Pt  Pt3935    1.0  0.95000  0.80000  0.35000  1.0000
  Pt  Pt3936    1.0  0.95000  0.85000  0.30000  1.0000
  Pt  Pt3937    1.0  0.90000  0.80000  0.40000  1.0000
  Pt  Pt3938    1.0  0.90000  0.85000  0.45000  1.0000
  Pt  Pt3939    1.0  0.95000  0.80000  0.45000  1.0000
  Pt  Pt3940    1.0  0.95000  0.85000  0.40000  1.0000
  Pt  Pt3941    1.0  0.90000  0.80000  0.50000  1.0000
  Pt  Pt3942    1.0  0.90000  0.85000  0.55000  1.0000
  Pt  Pt3943    1.0  0.95000  0.80000  0.55000  1.0000
  Pt  Pt3944    1.0  0.95000  0.85000  0.50000  1.0000
  Pt  Pt3945    1.0  0.90000  0.80000  0.60000  1.0000
  Pt  Pt3946    1.0  0.90000  0.85000  0.65000  1.0000
  Pt  Pt3947    1.0  0.95000  0.80000  0.65000  1.0000
  Pt  Pt3948    1.0  0.95000  0.85000  0.60000  1.0000
  Pt  Pt3949    1.0  0.90000  0.80000  0.70000  1.0000
  Pt  Pt3950    1.0  0.90000  0.85000  0.75000  1.0000
  Pt  Pt3951    1.0  0.95000  0.80000  0.75000  1.0000
  Pt  Pt3952    1.0  0.95000  0.85000  0.70000  1.0000
  Pt  Pt3953    1.0  0.90000  0.80000  0.80000  1.0000
  Pt  Pt3954    1.0  0.90000  0.85000  0.85000  1.0000
  Pt  Pt3955    1.0  0.95000  0.80000  0.85000  1.0000
  Pt  Pt3956    1.0  0.95000  0.85000  0.80000  1.0000
  Pt  Pt3957    1.0  0.90000  0.80000  0.90000  1.0000
  Pt  Pt3958    1.0  0.90000  0.85000  0.95000  1.0000
  Pt  Pt3959    1.0  0.95000  0.80000  0.95000  1.0000
  Pt  Pt3960    1.0  0.95000  0.85000  0.90000  1.0000
  Pt  Pt3961    1.0  0.90000  0.90000  0.00000  1.0000
  Pt  Pt3962    1.0  0.90000  0.95000  0.05000  1.0000
  Pt  Pt3963    1.0  0.95000  0.90000  0.05000  1.0000
  Pt  Pt3964    1.0  0.95000  0.95000  0.00000  1.0000
  Pt  Pt3965    1.0  0.90000  0.90000  0.10000  1.0000
  Pt  Pt3966    1.0  0.90000  0.95000  0.15000  1.0000
  Pt  Pt3967    1.0  0.95000  0.90000  0.15000  1.0000
  Pt  Pt3968    1.0  0.95000  0.95000  0.10000  1.0000
  Pt  Pt3969    1.0  0.90000  0.90000  0.20000  1.0000
  Pt  Pt3970    1.0  0.90000  0.95000  0.25000  1.0000
  Pt  Pt3971    1.0  0.95000  0.90000  0.25000  1.0000
  Pt  Pt3972    1.0  0.95000  0.95000  0.20000  1.0000
  Pt  Pt3973    1.0  0.90000  0.90000  0.30000  1.0000
  Pt  Pt3974    1.0  0.90000  0.95000  0.35000  1.0000
  Pt  Pt3975    1.0  0.95000  0.90000  0.35000  1.0000
  Pt  Pt3976    1.0  0.95000  0.95000  0.30000  1.0000
  Pt  Pt3977    1.0  0.90000  0.90000  0.40000  1.0000
  Pt  Pt3978    1.0  0.90000  0.95000  0.45000  1.0000
  Pt  Pt3979    1.0  0.95000  0.90000  0.45000  1.0000
  Pt  Pt3980    1.0  0.95000  0.95000  0.40000  1.0000
  Pt  Pt3981    1.0  0.90000  0.90000  0.50000  1.0000
  Pt  Pt3982    1.0  0.90000  0.95000  0.55000  1.0000
  Pt  Pt3983    1.0  0.95000  0.90000  0.55000  1.0000
  Pt  Pt3984    1.0  0.95000  0.95000  0.50000  1.0000
  Pt  Pt3985    1.0  0.90000  0.90000  0.60000  1.0000
  Pt  Pt3986    1.0  0.90000  0.95000  0.65000  1.0000
  Pt  Pt3987    1.0  0.95000  0.90000  0.65000  1.0000
  Pt  Pt3988    1.0  0.95000  0.95000  0.60000  1.0000
  Pt  Pt3989    1.0  0.90000  0.90000  0.70000  1.0000
  Pt  Pt3990    1.0  0.90000  0.95000  0.75000  1.0000
  Pt  Pt3991    1.0  0.95000  0.90000  0.75000  1.0000
  Pt  Pt3992    1.0  0.95000  0.95000  0.70000  1.0000
  Pt  Pt3993    1.0  0.90000  0.90000  0.80000  1.0000
  Pt  Pt3994    1.0  0.90000  0.95000  0.85000  1.0000
  Pt  Pt3995    1.0  0.95000  0.90000  0.85000  1.0000
  Pt  Pt3996    1.0  0.95000  0.95000  0.80000  1.0000
  Pt  Pt3997    1.0  0.90000  0.90000  0.90000  1.0000
  Pt  Pt3998    1.0  0.90000  0.95000  0.95000  1.0000
  Pt  Pt3999    1.0  0.95000  0.90000  0.95000  1.0000
  Pt  Pt4000    1.0  0.95000  0.95000  0.90000  1.0000
